data/nesta/api/nesta_case2224_edin__api.m
%%%%%%%%%%%%%%%%%%%%%%%%%%%%%%%%%%%%%%%%%%%%%%%%%%%%%%%%%%%%%%%%%%%%%%%%%%%
%%%%                                                                  %%%%%
%%%%      NICTA Energy System Test Case Archive (NESTA) - v0.1.5      %%%%%
%%%%            Optimal Power Flow - Active Power Increase            %%%%%
%%%%                       30 - October - 2014                        %%%%%
%%%%                                                                  %%%%%
%%%%%%%%%%%%%%%%%%%%%%%%%%%%%%%%%%%%%%%%%%%%%%%%%%%%%%%%%%%%%%%%%%%%%%%%%%%
function mpc = nesta_case2224_edin__api
mpc.version = '2';
mpc.baseMVA = 100.0;

%% area data
%	area	refbus
mpc.areas = [
	1	 1;
];

%% bus data
%	bus_i	type	Pd	Qd	Gs	Bs	area	Vm	Va	baseKV	zone	Vmax	Vmin
mpc.bus = [
	1	 1	 0.00	 0.00	 0.0	 0.0	 1	     1.0493	    -1.4690	 275.0	 1	     1.0600	     0.9400;
	2	 2	 0.00	 0.00	 0.0	 0.0	 1	     1.0530	     2.7505	 275.0	 1	     1.0600	     0.9400;
	3	 2	 0.00	 0.00	 0.0	 0.0	 1	     1.0530	     2.7905	 275.0	 1	     1.0600	     0.9400;
	4	 2	 0.00	 0.00	 0.0	 0.0	 1	     1.0530	     2.7451	 275.0	 1	     1.0600	     0.9400;
	5	 1	 0.00	 0.00	 0.0	 0.0	 1	     1.0420	     0.3483	 275.0	 1	     1.0600	     0.9400;
	6	 2	 0.00	 0.00	 0.0	 0.0	 1	     1.0530	    11.9795	 275.0	 1	     1.0600	     0.9400;
	7	 2	 0.00	 0.00	 0.0	 0.0	 1	     1.0530	    11.9991	 275.0	 1	     1.0600	     0.9400;
	8	 1	 0.00	 0.00	 0.0	 0.0	 1	     1.0479	     2.3561	 275.0	 1	     1.0600	     0.9400;
	9	 2	 0.00	 0.00	 0.0	 0.0	 1	     1.0530	    13.7786	 275.0	 1	     1.0600	     0.9400;
	10	 2	 0.00	 0.00	 0.0	 0.0	 1	     1.0530	    13.9344	 275.0	 1	     1.0600	     0.9400;
	11	 2	 0.00	 0.00	 0.0	 0.0	 1	     1.0530	    13.9670	 275.0	 1	     1.0600	     0.9400;
	12	 2	 0.00	 0.00	 0.0	 0.0	 1	     1.0530	    12.4827	 275.0	 1	     1.0600	     0.9400;
	13	 2	 0.00	 0.00	 0.0	 0.0	 1	     1.0530	    15.9216	 275.0	 1	     1.0600	     0.9400;
	14	 1	 8.02	 21.52	 0.0	 0.0	 1	     1.0530	    17.1884	 400.0	 1	     1.0600	     0.9400;
	15	 2	 0.00	 0.00	 0.0	 0.0	 1	     1.0530	    21.5384	 400.0	 1	     1.0600	     0.9400;
	16	 2	 0.00	 0.00	 0.0	 0.0	 1	     1.0530	    21.4533	 400.0	 1	     1.0600	     0.9400;
	17	 2	 0.00	 0.00	 0.0	 0.0	 1	     1.0530	    21.4673	 400.0	 1	     1.0600	     0.9400;
	18	 2	 0.00	 0.00	 0.0	 0.0	 1	     1.0530	    21.4446	 400.0	 1	     1.0600	     0.9400;
	19	 1	 0.00	 0.00	 0.0	 0.0	 1	     1.0481	    16.7492	 400.0	 1	     1.0600	     0.9400;
	20	 2	 0.00	 0.00	 0.0	 0.0	 1	     1.0530	    27.0498	 400.0	 1	     1.0600	     0.9400;
	21	 2	 0.00	 0.00	 0.0	 0.0	 1	     1.0530	    27.0498	 400.0	 1	     1.0600	     0.9400;
	22	 2	 0.00	 0.00	 0.0	 0.0	 1	     1.0530	    21.8639	 400.0	 1	     1.0600	     0.9400;
	23	 1	 0.00	 0.00	 0.0	 0.0	 1	     1.0522	    -2.1979	 400.0	 1	     1.0600	     0.9400;
	24	 2	 0.00	 0.00	 0.0	 0.0	 1	     1.0530	     2.2708	 400.0	 1	     1.0600	     0.9400;
	25	 2	 0.00	 0.00	 0.0	 0.0	 1	     1.0530	     2.1618	 400.0	 1	     1.0600	     0.9400;
	26	 1	 0.00	 0.00	 0.0	 0.0	 1	     1.0530	     0.2692	 400.0	 1	     1.0600	     0.9400;
	27	 2	 0.00	 0.00	 0.0	 0.0	 1	     1.0530	     4.5396	 400.0	 1	     1.0600	     0.9400;
	28	 2	 0.00	 0.00	 0.0	 0.0	 1	     1.0530	     4.6972	 400.0	 1	     1.0600	     0.9400;
	29	 1	 0.00	 0.00	 0.0	 0.0	 1	     1.0492	    22.7018	 400.0	 1	     1.0600	     0.9400;
	30	 2	 0.00	 0.00	 0.0	 0.0	 1	     1.0530	    29.5434	 400.0	 1	     1.0600	     0.9400;
	31	 2	 0.00	 0.00	 0.0	 0.0	 1	     1.0530	    29.5434	 400.0	 1	     1.0600	     0.9400;
	32	 2	 0.00	 0.00	 0.0	 0.0	 1	     1.0530	    29.5434	 400.0	 1	     1.0600	     0.9400;
	33	 2	 0.00	 0.00	 0.0	 0.0	 1	     1.0530	    29.5434	 400.0	 1	     1.0600	     0.9400;
	34	 2	 0.00	 0.00	 0.0	 0.0	 1	     1.0530	    29.5434	 400.0	 1	     1.0600	     0.9400;
	35	 2	 0.00	 0.00	 0.0	 0.0	 1	     1.0102	    22.7018	 400.0	 1	     1.0600	     0.9400;
	36	 1	 0.00	 0.00	 0.0	 0.0	 1	     1.0530	    19.6662	 400.0	 1	     1.0600	     0.9400;
	37	 2	 0.00	 0.00	 0.0	 0.0	 1	     1.0530	    22.6393	 400.0	 1	     1.0600	     0.9400;
	38	 2	 0.00	 0.00	 0.0	 0.0	 1	     1.0530	    22.6239	 400.0	 1	     1.0600	     0.9400;
	39	 2	 0.00	 0.00	 0.0	 0.0	 1	     1.0530	    22.6900	 400.0	 1	     1.0600	     0.9400;
	40	 1	 0.00	 0.00	 0.0	 0.0	 1	     1.0526	    18.9980	 400.0	 1	     1.0600	     0.9400;
	41	 2	 0.00	 0.00	 0.0	 0.0	 1	     1.0530	    21.8870	 400.0	 1	     1.0600	     0.9400;
	42	 2	 0.00	 0.00	 0.0	 0.0	 1	     1.0530	    21.9118	 400.0	 1	     1.0600	     0.9400;
	43	 2	 0.00	 0.00	 0.0	 0.0	 1	     1.0530	    21.8837	 400.0	 1	     1.0600	     0.9400;
	44	 1	 0.00	 0.00	 0.0	 0.0	 1	     1.0506	    -2.2249	 400.0	 1	     1.0600	     0.9400;
	45	 2	 0.00	 0.00	 0.0	 0.0	 1	     1.0530	     1.1939	 400.0	 1	     1.0600	     0.9400;
	46	 2	 0.00	 0.00	 0.0	 0.0	 1	     1.0530	     1.2109	 400.0	 1	     1.0600	     0.9400;
	47	 1	 0.00	 0.00	 0.0	 0.0	 1	     1.0508	    17.7893	 400.0	 1	     1.0600	     0.9400;
	48	 2	 0.00	 0.00	 0.0	 0.0	 1	     1.0530	    21.6306	 400.0	 1	     1.0600	     0.9400;
	49	 2	 0.00	 0.00	 0.0	 0.0	 1	     1.0530	    21.9700	 400.0	 1	     1.0600	     0.9400;
	50	 1	 16.44	 11.47	 0.0	 0.0	 1	     1.0512	    18.7796	 400.0	 1	     1.0600	     0.9400;
	51	 2	 0.00	 0.00	 0.0	 0.0	 1	     1.0530	    22.6605	 400.0	 1	     1.0600	     0.9400;
	52	 2	 0.00	 0.00	 0.0	 0.0	 1	     1.0530	    22.8792	 400.0	 1	     1.0600	     0.9400;
	53	 1	 0.00	 0.00	 0.0	 0.0	 1	     1.0231	   -10.6942	 400.0	 1	     1.0600	     0.9400;
	54	 2	 0.00	 0.00	 0.0	 0.0	 1	     1.0055	   -10.6942	 400.0	 1	     1.0600	     0.9400;
	55	 2	 0.00	 0.00	 0.0	 0.0	 1	     1.0055	   -10.6942	 400.0	 1	     1.0600	     0.9400;
	56	 1	 0.00	 0.00	 0.0	 0.0	 1	     1.0529	    15.6078	 275.0	 1	     1.0600	     0.9400;
	57	 2	 0.00	 0.00	 0.0	 0.0	 1	     1.0530	    19.9553	 275.0	 1	     1.0600	     0.9400;
	58	 1	 0.00	 0.00	 0.0	 0.0	 1	     1.0529	    15.7090	 275.0	 1	     1.0600	     0.9400;
	59	 2	 0.00	 0.00	 0.0	 0.0	 1	     1.0530	    20.1519	 275.0	 1	     1.0600	     0.9400;
	60	 1	 0.00	 0.00	 0.0	 0.0	 1	     1.0439	    13.7887	 275.0	 1	     1.0600	     0.9400;
	61	 2	 0.00	 0.00	 0.0	 0.0	 1	     1.0530	    18.1498	 275.0	 1	     1.0600	     0.9400;
	62	 2	 0.00	 0.00	 0.0	 0.0	 1	     1.0530	    19.9965	 275.0	 1	     1.0600	     0.9400;
	63	 1	 0.00	 0.00	 0.0	 0.0	 1	     1.0476	    21.1867	 275.0	 1	     1.0600	     0.9400;
	64	 2	 0.00	 0.00	 0.0	 0.0	 1	     1.0530	    34.9748	 275.0	 1	     1.0600	     0.9400;
	65	 2	 0.00	 0.00	 0.0	 0.0	 1	     1.0351	    28.2008	 275.0	 1	     1.0600	     0.9400;
	66	 1	 0.00	 0.00	 0.0	 0.0	 1	     1.0530	    16.3628	 275.0	 1	     1.0600	     0.9400;
	67	 2	 0.00	 0.00	 0.0	 0.0	 1	     1.0530	    20.8923	 275.0	 1	     1.0600	     0.9400;
	68	 1	 0.00	 0.00	 0.0	 0.0	 1	     1.0530	    16.3222	 275.0	 1	     1.0600	     0.9400;
	69	 2	 0.00	 0.00	 0.0	 0.0	 1	     1.0530	    20.8527	 275.0	 1	     1.0600	     0.9400;
	70	 1	 0.00	 0.00	 0.0	 0.0	 1	     1.0530	    15.3043	 275.0	 1	     1.0600	     0.9400;
	71	 2	 0.00	 0.00	 0.0	 0.0	 1	     1.0530	    19.8131	 275.0	 1	     1.0600	     0.9400;
	72	 1	 0.00	 0.00	 0.0	 0.0	 1	     1.0530	    15.3142	 275.0	 1	     1.0600	     0.9400;
	73	 2	 0.00	 0.00	 0.0	 0.0	 1	     1.0530	    19.6272	 275.0	 1	     1.0600	     0.9400;
	74	 1	 16.29	 10.93	 0.0	 0.0	 1	     1.0515	     0.8361	 400.0	 1	     1.0600	     0.9400;
	75	 2	 0.00	 0.00	 0.0	 0.0	 1	     1.0017	     0.8361	 400.0	 1	     1.0600	     0.9400;
	76	 2	 0.00	 0.00	 0.0	 0.0	 1	     1.0017	     0.8361	 400.0	 1	     1.0600	     0.9400;
	77	 2	 0.00	 0.00	 0.0	 0.0	 1	     1.0017	     0.8361	 400.0	 1	     1.0600	     0.9400;
	78	 2	 0.00	 0.00	 0.0	 0.0	 1	     1.0017	     0.8361	 400.0	 1	     1.0600	     0.9400;
	79	 1	 0.00	 0.00	 0.0	 0.0	 1	     1.0530	    23.1218	 275.0	 1	     1.0600	     0.9400;
	80	 2	 0.00	 0.00	 0.0	 0.0	 1	     1.0530	    26.4538	 275.0	 1	     1.0600	     0.9400;
	81	 2	 0.00	 0.00	 0.0	 0.0	 1	     1.0530	    26.4620	 275.0	 1	     1.0600	     0.9400;
	82	 1	 0.00	 0.00	 0.0	 0.0	 1	     1.0530	    18.0486	 400.0	 1	     1.0600	     0.9400;
	83	 2	 0.00	 0.00	 0.0	 0.0	 1	     1.0530	    21.2460	 400.0	 1	     1.0600	     0.9400;
	84	 2	 0.00	 0.00	 0.0	 0.0	 1	     1.0530	    21.2899	 400.0	 1	     1.0600	     0.9400;
	85	 2	 0.00	 0.00	 0.0	 0.0	 1	     1.0530	    21.1733	 400.0	 1	     1.0600	     0.9400;
	86	 2	 0.00	 0.00	 0.0	 0.0	 1	     1.0530	    21.1327	 400.0	 1	     1.0600	     0.9400;
	87	 1	 0.00	 0.00	 0.0	 0.0	 1	     1.0525	    -8.7622	 400.0	 1	     1.0600	     0.9400;
	88	 2	 0.00	 0.00	 0.0	 0.0	 1	     1.0530	    -5.1993	 400.0	 1	     1.0600	     0.9400;
	89	 2	 0.00	 0.00	 0.0	 0.0	 1	     1.0530	    -5.3311	 400.0	 1	     1.0600	     0.9400;
	90	 1	 0.00	 0.00	 0.0	 2.02	 1	     1.0478	     6.3877	 400.0	 1	     1.0600	     0.9400;
	91	 2	 0.00	 0.00	 0.0	 0.0	 1	     1.0530	    10.8167	 400.0	 1	     1.0600	     0.9400;
	92	 2	 0.00	 0.00	 0.0	 0.0	 1	     1.0530	    10.9454	 400.0	 1	     1.0600	     0.9400;
	93	 1	 0.00	 0.00	 0.0	 0.0	 1	     1.0514	    23.3416	 400.0	 1	     1.0600	     0.9400;
	94	 2	 0.00	 0.00	 0.0	 0.0	 1	     1.0530	    31.5402	 400.0	 1	     1.0600	     0.9400;
	95	 1	 0.00	 0.00	 0.0	 0.0	 1	     1.0501	    23.1662	 400.0	 1	     1.0600	     0.9400;
	96	 2	 0.00	 0.00	 0.0	 0.0	 1	     1.0530	    31.0070	 400.0	 1	     1.0600	     0.9400;
	97	 2	 0.00	 0.00	 0.0	 0.0	 1	     1.0530	    31.0025	 400.0	 1	     1.0600	     0.9400;
	98	 1	 0.00	 0.00	 0.0	 0.0	 1	     1.0528	    27.9944	 400.0	 1	     1.0600	     0.9400;
	99	 2	 0.00	 0.00	 0.0	 0.0	 1	     1.0530	    36.0731	 400.0	 1	     1.0600	     0.9400;
	100	 2	 0.00	 0.00	 0.0	 0.0	 1	     1.0530	    35.3815	 400.0	 1	     1.0600	     0.9400;
	101	 2	 0.00	 0.00	 0.0	 0.0	 1	     1.0530	    36.0097	 400.0	 1	     1.0600	     0.9400;
	102	 2	 0.00	 0.00	 0.0	 0.0	 1	     1.0530	    36.0097	 400.0	 1	     1.0600	     0.9400;
	103	 2	 0.00	 0.00	 0.0	 0.0	 1	     1.0530	    36.0522	 400.0	 1	     1.0600	     0.9400;
	104	 2	 0.00	 0.00	 0.0	 0.0	 1	     1.0530	    36.0522	 400.0	 1	     1.0600	     0.9400;
	105	 2	 0.00	 0.00	 0.0	 0.0	 1	     1.0530	    35.8842	 400.0	 1	     1.0600	     0.9400;
	106	 2	 0.00	 0.00	 0.0	 0.0	 1	     1.0530	    35.8842	 400.0	 1	     1.0600	     0.9400;
	107	 2	 0.00	 0.00	 0.0	 0.0	 1	     1.0530	    35.8842	 400.0	 1	     1.0600	     0.9400;
	108	 2	 0.00	 0.00	 0.0	 0.0	 1	     1.0530	    35.0714	 400.0	 1	     1.0600	     0.9400;
	109	 1	 0.00	 0.00	 0.0	 0.0	 1	     1.0524	     1.2090	 400.0	 1	     1.0600	     0.9400;
	110	 2	 0.00	 0.00	 0.0	 0.0	 1	     1.0530	     5.7289	 400.0	 1	     1.0600	     0.9400;
	111	 2	 0.00	 0.00	 0.0	 0.0	 1	     1.0530	     5.7216	 400.0	 1	     1.0600	     0.9400;
	112	 1	 0.00	 0.00	 0.0	 0.0	 1	     1.0529	     2.6686	 400.0	 1	     1.0600	     0.9400;
	113	 2	 0.00	 0.00	 0.0	 0.0	 1	     1.0530	     6.9404	 400.0	 1	     1.0600	     0.9400;
	114	 2	 0.00	 0.00	 0.0	 0.0	 1	     1.0530	     7.2157	 400.0	 1	     1.0600	     0.9400;
	115	 1	 0.00	 0.00	 0.0	 0.0	 1	     1.0524	     8.9462	 400.0	 1	     1.0600	     0.9400;
	116	 2	 0.00	 0.00	 0.0	 0.0	 1	     1.0530	    19.2041	 400.0	 1	     1.0600	     0.9400;
	117	 2	 0.00	 0.00	 0.0	 0.0	 1	     1.0530	    19.1290	 400.0	 1	     1.0600	     0.9400;
	118	 2	 0.00	 0.00	 0.0	 0.0	 1	     1.0530	    17.1037	 400.0	 1	     1.0600	     0.9400;
	119	 1	 0.00	 0.00	 0.0	 0.0	 1	     1.0460	    -2.1519	 400.0	 1	     1.0600	     0.9400;
	120	 2	 0.00	 0.00	 0.0	 0.0	 1	     1.0530	     0.9816	 400.0	 1	     1.0600	     0.9400;
	121	 2	 0.00	 0.00	 0.0	 0.0	 1	     1.0530	     0.9579	 400.0	 1	     1.0600	     0.9400;
	122	 2	 0.00	 0.00	 0.0	 0.0	 1	     0.9997	    -2.1519	 400.0	 1	     1.0600	     0.9400;
	123	 1	 0.00	 0.00	 0.0	 0.0	 1	     1.0514	     1.0567	 400.0	 1	     1.0600	     0.9400;
	124	 2	 0.00	 0.00	 0.0	 0.0	 1	     1.0530	     9.3374	 400.0	 1	     1.0600	     0.9400;
	125	 2	 0.00	 0.00	 0.0	 0.0	 1	     1.0530	     9.3159	 400.0	 1	     1.0600	     0.9400;
	126	 2	 0.00	 0.00	 0.0	 0.0	 1	     1.0530	     9.3830	 400.0	 1	     1.0600	     0.9400;
	127	 1	 0.00	 0.00	 0.0	 0.0	 1	     1.0461	     5.9997	 400.0	 1	     1.0600	     0.9400;
	128	 2	 0.00	 0.00	 0.0	 0.0	 1	     1.0530	    10.3951	 400.0	 1	     1.0600	     0.9400;
	129	 2	 0.00	 0.00	 0.0	 0.0	 1	     1.0530	     9.1593	 400.0	 1	     1.0600	     0.9400;
	130	 1	 0.00	 0.00	 0.0	 0.0	 1	     1.0397	     5.4684	 400.0	 1	     1.0600	     0.9400;
	131	 2	 0.00	 0.00	 0.0	 0.0	 1	     1.0530	     8.6387	 400.0	 1	     1.0600	     0.9400;
	132	 2	 0.00	 0.00	 0.0	 0.0	 1	     1.0530	     9.4284	 400.0	 1	     1.0600	     0.9400;
	133	 1	 17.68	 0.00	 0.0	 0.0	 1	     1.0530	     5.0631	 400.0	 1	     1.0600	     0.9400;
	134	 2	 0.00	 0.00	 0.0	 0.0	 1	     1.0530	     9.0113	 400.0	 1	     1.0600	     0.9400;
	135	 2	 0.00	 0.00	 0.0	 0.0	 1	     1.0530	     8.9487	 400.0	 1	     1.0600	     0.9400;
	136	 1	 0.00	 0.00	 0.0	 0.0	 1	     1.0495	     4.8068	 400.0	 1	     1.0600	     0.9400;
	137	 2	 0.00	 0.00	 0.0	 0.0	 1	     1.0530	    13.4631	 400.0	 1	     1.0600	     0.9400;
	138	 2	 0.00	 0.00	 0.0	 0.0	 1	     1.0530	    12.6489	 400.0	 1	     1.0600	     0.9400;
	139	 2	 0.00	 0.00	 0.0	 0.0	 1	     1.0530	    13.5123	 400.0	 1	     1.0600	     0.9400;
	140	 2	 0.00	 0.00	 0.0	 0.0	 1	     1.0530	    11.9276	 400.0	 1	     1.0600	     0.9400;
	141	 1	 4.63	 3.37	 0.0	 0.0	 1	     1.0530	     5.7220	 400.0	 1	     1.0600	     0.9400;
	142	 2	 0.00	 0.00	 0.0	 0.0	 1	     1.0530	     8.9705	 400.0	 1	     1.0600	     0.9400;
	143	 2	 0.00	 0.00	 0.0	 0.0	 1	     1.0530	     8.9792	 400.0	 1	     1.0600	     0.9400;
	144	 1	 0.00	 0.00	 0.0	 0.0	 1	     1.0479	    32.4623	 275.0	 1	     1.0600	     0.9400;
	145	 2	 0.00	 0.00	 0.0	 0.0	 1	     1.0530	    45.0702	 275.0	 1	     1.0600	     0.9400;
	146	 2	 0.00	 0.00	 0.0	 0.0	 1	     1.0530	    45.1787	 275.0	 1	     1.0600	     0.9400;
	147	 2	 0.00	 0.00	 0.0	 0.0	 1	     1.0530	    45.1787	 275.0	 1	     1.0600	     0.9400;
	148	 2	 0.00	 0.00	 0.0	 0.0	 1	     1.0530	    45.2316	 275.0	 1	     1.0600	     0.9400;
	149	 1	 0.00	 0.00	 0.0	 0.0	 1	     1.0479	    32.4371	 275.0	 1	     1.0600	     0.9400;
	150	 2	 0.00	 0.00	 0.0	 0.0	 1	     1.0530	    45.0672	 275.0	 1	     1.0600	     0.9400;
	151	 2	 0.00	 0.00	 0.0	 0.0	 1	     1.0530	    45.1873	 275.0	 1	     1.0600	     0.9400;
	152	 2	 0.00	 0.00	 0.0	 0.0	 1	     1.0530	    45.0672	 275.0	 1	     1.0600	     0.9400;
	153	 2	 0.00	 0.00	 0.0	 0.0	 1	     1.0530	    45.1361	 275.0	 1	     1.0600	     0.9400;
	154	 2	 0.00	 0.00	 0.0	 0.0	 1	     1.0530	    39.0635	 275.0	 1	     1.0600	     0.9400;
	155	 2	 0.00	 0.00	 0.0	 0.0	 1	     1.0530	    39.1243	 275.0	 1	     1.0600	     0.9400;
	156	 2	 0.00	 0.00	 0.0	 0.0	 1	     1.0058	    32.4623	 275.0	 1	     1.0600	     0.9400;
	157	 1	 0.00	 0.00	 0.0	 0.0	 1	     1.0500	     1.8604	 275.0	 1	     1.0600	     0.9400;
	158	 2	 0.00	 0.00	 0.0	 0.0	 1	     0.9915	     1.8604	 275.0	 1	     1.0600	     0.9400;
	159	 2	 0.00	 0.00	 0.0	 0.0	 1	     1.0530	     8.6966	 275.0	 1	     1.0600	     0.9400;
	160	 1	 0.00	 0.00	 0.0	 0.0	 1	     1.0530	     2.4134	 275.0	 1	     1.0600	     0.9400;
	161	 2	 0.00	 0.00	 0.0	 0.0	 1	     1.0530	     9.3013	 275.0	 1	     1.0600	     0.9400;
	162	 2	 0.00	 0.00	 0.0	 0.0	 1	     1.0530	     9.2162	 275.0	 1	     1.0600	     0.9400;
	163	 1	 0.00	 0.00	 0.0	 0.0	 1	     1.0530	    17.6886	 400.0	 1	     1.0600	     0.9400;
	164	 2	 0.00	 0.00	 0.0	 0.0	 1	     1.0530	    21.8145	 400.0	 1	     1.0600	     0.9400;
	165	 2	 0.00	 0.00	 0.0	 0.0	 1	     1.0530	    21.8422	 400.0	 1	     1.0600	     0.9400;
	166	 2	 0.00	 0.00	 0.0	 0.0	 1	     1.0530	    21.8683	 400.0	 1	     1.0600	     0.9400;
	167	 2	 0.00	 0.00	 0.0	 0.0	 1	     1.0530	    21.8466	 400.0	 1	     1.0600	     0.9400;
	168	 1	 0.00	 0.00	 0.0	 0.0	 1	     1.0458	    23.4949	 400.0	 1	     1.0600	     0.9400;
	169	 2	 0.00	 0.00	 0.0	 0.0	 1	     1.0530	    30.7823	 400.0	 1	     1.0600	     0.9400;
	170	 2	 0.00	 0.00	 0.0	 0.0	 1	     1.0530	    30.9603	 400.0	 1	     1.0600	     0.9400;
	171	 2	 0.00	 0.00	 0.0	 0.0	 1	     1.0530	    30.7184	 400.0	 1	     1.0600	     0.9400;
	172	 2	 0.00	 0.00	 0.0	 0.0	 1	     1.0530	    30.5500	 400.0	 1	     1.0600	     0.9400;
	173	 1	 0.00	 0.00	 0.0	 0.0	 1	     1.0530	    16.9947	 400.0	 1	     1.0600	     0.9400;
	174	 2	 0.00	 0.00	 0.0	 0.0	 1	     1.0530	    22.8854	 400.0	 1	     1.0600	     0.9400;
	175	 2	 0.00	 0.00	 0.0	 0.0	 1	     1.0530	    22.8936	 400.0	 1	     1.0600	     0.9400;
	176	 2	 0.00	 0.00	 0.0	 0.0	 1	     1.0530	    22.9215	 400.0	 1	     1.0600	     0.9400;
	177	 2	 0.00	 0.00	 0.0	 0.0	 1	     1.0530	    22.9100	 400.0	 1	     1.0600	     0.9400;
	178	 2	 0.00	 0.00	 0.0	 0.0	 1	     1.0530	     8.0184	 400.0	 1	     1.0600	     0.9400;
	179	 2	 0.00	 0.00	 0.0	 0.0	 1	     1.0530	     8.0184	 400.0	 1	     1.0600	     0.9400;
	180	 2	 0.00	 0.00	 0.0	 0.0	 1	     1.0530	     7.5806	 400.0	 1	     1.0600	     0.9400;
	181	 1	 0.00	 0.00	 0.0	 0.0	 1	     1.0485	   -13.1392	 400.0	 1	     1.0600	     0.9400;
	182	 2	 0.00	 0.00	 0.0	 0.0	 1	     1.0092	   -13.1392	 400.0	 1	     1.0600	     0.9400;
	183	 1	 0.00	 0.00	 0.0	 0.0	 1	     1.0530	    28.9168	 400.0	 1	     1.0600	     0.9400;
	184	 2	 0.00	 0.00	 0.0	 0.0	 1	     1.0530	    37.7580	 400.0	 1	     1.0600	     0.9400;
	185	 2	 0.00	 0.00	 0.0	 0.0	 1	     1.0530	    37.7861	 400.0	 1	     1.0600	     0.9400;
	186	 2	 0.00	 0.00	 0.0	 0.0	 1	     1.0530	    37.7472	 400.0	 1	     1.0600	     0.9400;
	187	 2	 0.00	 0.00	 0.0	 0.0	 1	     1.0530	    35.8613	 400.0	 1	     1.0600	     0.9400;
	188	 2	 0.00	 0.00	 0.0	 0.0	 1	     1.0530	     5.6204	 400.0	 1	     1.0600	     0.9400;
	189	 2	 0.00	 0.00	 0.0	 0.0	 1	     1.0530	     5.6369	 400.0	 1	     1.0600	     0.9400;
	190	 2	 0.00	 0.00	 0.0	 0.0	 1	     1.0530	     5.1976	 400.0	 1	     1.0600	     0.9400;
	191	 2	 0.00	 0.00	 0.0	 0.0	 1	     1.0530	    37.9702	 400.0	 1	     1.0600	     0.9400;
	192	 2	 0.00	 0.00	 0.0	 0.0	 1	     1.0530	    37.9992	 400.0	 1	     1.0600	     0.9400;
	193	 2	 0.00	 0.00	 0.0	 0.0	 1	     1.0530	    37.6688	 400.0	 1	     1.0600	     0.9400;
	194	 1	 129.28	 71.00	 0.0	 0.0	 1	     1.0523	    17.2388	 400.0	 1	     1.0600	     0.9400;
	195	 2	 0.00	 0.00	 0.0	 0.0	 1	     1.0530	    24.0269	 400.0	 1	     1.0600	     0.9400;
	196	 2	 0.00	 0.00	 0.0	 0.0	 1	     1.0530	    24.0269	 400.0	 1	     1.0600	     0.9400;
	197	 2	 0.00	 0.00	 0.0	 0.0	 1	     1.0530	    24.0269	 400.0	 1	     1.0600	     0.9400;
	198	 1	 0.00	 0.00	 0.0	 0.0	 1	     1.0530	    12.0447	 400.0	 1	     1.0600	     0.9400;
	199	 2	 0.00	 0.00	 0.0	 0.0	 1	     1.0530	    19.0745	 400.0	 1	     1.0600	     0.9400;
	200	 2	 0.00	 0.00	 0.0	 0.0	 1	     1.0530	    19.0745	 400.0	 1	     1.0600	     0.9400;
...
];

%% generator data
%	bus	Pg	Qg	Qmax	Qmin	Vg	mBase	status	Pmax	Pmin	Pc1	Pc2	Qc1min	Qc1max	Qc2min	Qc2max	ramp_agc	ramp_10	ramp_30	ramp_q	apf
mpc.gen = [
	2	 382.0	 -22.0	 298.0	 -274.0	 1.05	 100.0	 1	 547	 0.0	 0.0	 0.0	 0.0	 0.0	 0.0	 0.0	 0.0	 0.0	 0.0	 0.0	 0.0; % COW
	3	 473.0	 -7.0	 298.0	 -273.0	 1.05	 100.0	 1	 545	 0.0	 0.0	 0.0	 0.0	 0.0	 0.0	 0.0	 0.0	 0.0	 0.0	 0.0	 0.0; % COW
	4	 400.0	 -19.0	 298.0	 -202.0	 1.05	 100.0	 1	 404	 0.0	 0.0	 0.0	 0.0	 0.0	 0.0	 0.0	 0.0	 0.0	 0.0	 0.0	 0.0; % NUC
	6	 165.0	 35.0	 104.0	 -104.0	 1.05	 100.0	 1	 208	 0.0	 0.0	 0.0	 0.0	 0.0	 0.0	 0.0	 0.0	 0.0	 0.0	 0.0	 0.0; % NG
	7	 165.0	 35.0	 134.0	 -134.0	 1.05	 100.0	 1	 267	 0.0	 0.0	 0.0	 0.0	 0.0	 0.0	 0.0	 0.0	 0.0	 0.0	 0.0	 0.0; % NG
	9	 1.0	 -43.0	 81.0	 -46.0	 1.05	 100.0	 1	 2	 0.0	 0.0	 0.0	 0.0	 0.0	 0.0	 0.0	 0.0	 0.0	 0.0	 0.0	 0.0; % NG
	10	 1.0	 -35.0	 78.0	 -45.0	 1.05	 100.0	 1	 2	 0.0	 0.0	 0.0	 0.0	 0.0	 0.0	 0.0	 0.0	 0.0	 0.0	 0.0	 0.0; % NG
	11	 1.0	 -34.0	 78.0	 -45.0	 1.05	 100.0	 1	 1	 0.0	 0.0	 0.0	 0.0	 0.0	 0.0	 0.0	 0.0	 0.0	 0.0	 0.0	 0.0; % COW
	12	 174.0	 37.0	 118.0	 -118.0	 1.05	 100.0	 1	 236	 0.0	 0.0	 0.0	 0.0	 0.0	 0.0	 0.0	 0.0	 0.0	 0.0	 0.0	 0.0; % NG
	13	 1.0	 6.0	 125.0	 -70.0	 1.05	 100.0	 1	 4	 0.0	 0.0	 0.0	 0.0	 0.0	 0.0	 0.0	 0.0	 0.0	 0.0	 0.0	 0.0; % NG
	15	 83.0	 -90.0	 263.0	 -153.0	 1.05	 100.0	 1	 306	 0.0	 0.0	 0.0	 0.0	 0.0	 0.0	 0.0	 0.0	 0.0	 0.0	 0.0	 0.0; % COW
	16	 84.0	 -128.0	 243.0	 -153.6	 1.05	 100.0	 1	 279	 0.0	 0.0	 0.0	 0.0	 0.0	 0.0	 0.0	 0.0	 0.0	 0.0	 0.0	 0.0; % COW
	17	 83.0	 -99.0	 243.0	 -134.0	 1.05	 100.0	 1	 268	 0.0	 0.0	 0.0	 0.0	 0.0	 0.0	 0.0	 0.0	 0.0	 0.0	 0.0	 0.0; % COW
	18	 83.0	 -108.0	 263.0	 -120.0	 1.05	 100.0	 1	 102	 0.0	 0.0	 0.0	 0.0	 0.0	 0.0	 0.0	 0.0	 0.0	 0.0	 0.0	 0.0; % COW
	20	 243.0	 51.0	 178.0	 -178.0	 1.05	 100.0	 1	 356	 0.0	 0.0	 0.0	 0.0	 0.0	 0.0	 0.0	 0.0	 0.0	 0.0	 0.0	 0.0; % NG
	21	 243.0	 51.0	 167.0	 -167.0	 1.05	 100.0	 1	 333	 0.0	 0.0	 0.0	 0.0	 0.0	 0.0	 0.0	 0.0	 0.0	 0.0	 0.0	 0.0; % NG
	22	 242.0	 65.0	 126.0	 -126.0	 1.05	 100.0	 1	 252	 0.0	 0.0	 0.0	 0.0	 0.0	 0.0	 0.0	 0.0	 0.0	 0.0	 0.0	 0.0; % NG
	24	 194.0	 127.0	 282.71	 -281.0	 1.05	 100.0	 1	 561	 0.0	 0.0	 0.0	 0.0	 0.0	 0.0	 0.0	 0.0	 0.0	 0.0	 0.0	 0.0; % COW
	25	 192.0	 117.0	 302.66	 -174.4	 1.05	 100.0	 1	 245	 0.0	 0.0	 0.0	 0.0	 0.0	 0.0	 0.0	 0.0	 0.0	 0.0	 0.0	 0.0; % COW
	27	 291.0	 21.0	 282.71	 -185.0	 1.05	 100.0	 1	 370	 0.0	 0.0	 0.0	 0.0	 0.0	 0.0	 0.0	 0.0	 0.0	 0.0	 0.0	 0.0; % COW
	28	 286.0	 23.0	 301.0	 -301.0	 1.05	 100.0	 1	 602	 0.0	 0.0	 0.0	 0.0	 0.0	 0.0	 0.0	 0.0	 0.0	 0.0	 0.0	 0.0; % COW
	30	 159.0	 -50.0	 115.0	 -115.0	 1.05	 100.0	 1	 185	 0.0	 0.0	 0.0	 0.0	 0.0	 0.0	 0.0	 0.0	 0.0	 0.0	 0.0	 0.0; % NG
	31	 159.0	 -50.0	 220.0	 -220.0	 1.05	 100.0	 1	 440	 0.0	 0.0	 0.0	 0.0	 0.0	 0.0	 0.0	 0.0	 0.0	 0.0	 0.0	 0.0; % NG
	32	 159.0	 -50.0	 258.0	 -258.0	 1.05	 100.0	 1	 515	 0.0	 0.0	 0.0	 0.0	 0.0	 0.0	 0.0	 0.0	 0.0	 0.0	 0.0	 0.0; % NG
	33	 159.0	 -50.0	 117.0	 -117.0	 1.05	 100.0	 1	 234	 0.0	 0.0	 0.0	 0.0	 0.0	 0.0	 0.0	 0.0	 0.0	 0.0	 0.0	 0.0; % NG
	34	 159.0	 -50.0	 115.0	 -115.0	 1.05	 100.0	 1	 208	 0.0	 0.0	 0.0	 0.0	 0.0	 0.0	 0.0	 0.0	 0.0	 0.0	 0.0	 0.0; % NG
	35	 0.0	 72.0	 86.4	 -86.4	 1.01	 100.0	 1	 0	 0.0	 0.0	 0.0	 0.0	 0.0	 0.0	 0.0	 0.0	 0.0	 0.0	 0.0	 0.0; % SYNC
	37	 450.0	 134.0	 380.0	 -303.0	 1.05	 100.0	 1	 606	 0.0	 0.0	 0.0	 0.0	 0.0	 0.0	 0.0	 0.0	 0.0	 0.0	 0.0	 0.0; % COW
	38	 452.0	 135.0	 534.0	 -534.0	 1.05	 100.0	 1	 1068	 0.0	 0.0	 0.0	 0.0	 0.0	 0.0	 0.0	 0.0	 0.0	 0.0	 0.0	 0.0; % COW
	39	 445.0	 133.0	 645.0	 -645.0	 1.05	 100.0	 1	 1289	 0.0	 0.0	 0.0	 0.0	 0.0	 0.0	 0.0	 0.0	 0.0	 0.0	 0.0	 0.0; % COW
	41	 379.0	 177.0	 380.0	 -220.0	 1.05	 100.0	 1	 440	 0.0	 0.0	 0.0	 0.0	 0.0	 0.0	 0.0	 0.0	 0.0	 0.0	 0.0	 0.0; % PEL
	42	 379.0	 177.0	 380.0	 -223.0	 1.05	 100.0	 1	 445	 0.0	 0.0	 0.0	 0.0	 0.0	 0.0	 0.0	 0.0	 0.0	 0.0	 0.0	 0.0; % COW
	43	 384.0	 183.0	 380.0	 -223.0	 1.05	 100.0	 1	 445	 0.0	 0.0	 0.0	 0.0	 0.0	 0.0	 0.0	 0.0	 0.0	 0.0	 0.0	 0.0; % PEL
	45	 275.0	 -13.0	 409.0	 -217.0	 1.05	 100.0	 1	 280	 0.0	 0.0	 0.0	 0.0	 0.0	 0.0	 0.0	 0.0	 0.0	 0.0	 0.0	 0.0; % COW
	46	 275.0	 -18.0	 402.0	 -227.0	 1.05	 100.0	 1	 440	 0.0	 0.0	 0.0	 0.0	 0.0	 0.0	 0.0	 0.0	 0.0	 0.0	 0.0	 0.0; % COW
	48	 542.0	 196.0	 401.0	 -401.0	 1.05	 100.0	 1	 802	 0.0	 0.0	 0.0	 0.0	 0.0	 0.0	 0.0	 0.0	 0.0	 0.0	 0.0	 0.0; % COW
	49	 474.0	 139.0	 507.0	 -507.0	 1.05	 100.0	 1	 1014	 0.0	 0.0	 0.0	 0.0	 0.0	 0.0	 0.0	 0.0	 0.0	 0.0	 0.0	 0.0; % COW
	51	 513.0	 130.0	 483.0	 -483.0	 1.05	 100.0	 1	 965	 0.0	 0.0	 0.0	 0.0	 0.0	 0.0	 0.0	 0.0	 0.0	 0.0	 0.0	 0.0; % NUC
	52	 504.0	 151.0	 279.0	 -279.0	 1.05	 100.0	 1	 557	 0.0	 0.0	 0.0	 0.0	 0.0	 0.0	 0.0	 0.0	 0.0	 0.0	 0.0	 0.0; % NG
	54	 0.0	 -107.0	 128.4	 -128.4	 1.01	 100.0	 1	 0	 0.0	 0.0	 0.0	 0.0	 0.0	 0.0	 0.0	 0.0	 0.0	 0.0	 0.0	 0.0; % SYNC
	55	 0.0	 -107.0	 128.4	 -128.4	 1.01	 100.0	 1	 0	 0.0	 0.0	 0.0	 0.0	 0.0	 0.0	 0.0	 0.0	 0.0	 0.0	 0.0	 0.0; % SYNC
	57	 223.0	 149.0	 286.0	 -178.8	 1.05	 100.0	 1	 309	 0.0	 0.0	 0.0	 0.0	 0.0	 0.0	 0.0	 0.0	 0.0	 0.0	 0.0	 0.0; % COW
	59	 695.0	 357.0	 428.4	 -428.4	 1.05	 100.0	 1	 711	 0.0	 0.0	 0.0	 0.0	 0.0	 0.0	 0.0	 0.0	 0.0	 0.0	 0.0	 0.0; % COW
	61	 855.0	 399.0	 503.0	 -503.0	 1.05	 100.0	 1	 1005	 0.0	 0.0	 0.0	 0.0	 0.0	 0.0	 0.0	 0.0	 0.0	 0.0	 0.0	 0.0; % COW
	62	 223.0	 157.0	 412.0	 -412.0	 1.05	 100.0	 1	 824	 0.0	 0.0	 0.0	 0.0	 0.0	 0.0	 0.0	 0.0	 0.0	 0.0	 0.0	 0.0; % COW
	64	 60.0	 11.0	 60.0	 -60.0	 1.05	 100.0	 1	 117	 0.0	 0.0	 0.0	 0.0	 0.0	 0.0	 0.0	 0.0	 0.0	 0.0	 0.0	 0.0; % NG
	65	 60.0	 11.0	 53.0	 -53.0	 1.04	 100.0	 1	 106	 0.0	 0.0	 0.0	 0.0	 0.0	 0.0	 0.0	 0.0	 0.0	 0.0	 0.0	 0.0; % COW
	67	 427.0	 39.0	 308.0	 -256.0	 1.05	 100.0	 1	 511	 0.0	 0.0	 0.0	 0.0	 0.0	 0.0	 0.0	 0.0	 0.0	 0.0	 0.0	 0.0; % COW
	69	 422.0	 50.0	 397.0	 -397.0	 1.05	 100.0	 1	 794	 0.0	 0.0	 0.0	 0.0	 0.0	 0.0	 0.0	 0.0	 0.0	 0.0	 0.0	 0.0; % COW
	71	 329.0	 67.0	 329.0	 -264.0	 1.05	 100.0	 1	 527	 0.0	 0.0	 0.0	 0.0	 0.0	 0.0	 0.0	 0.0	 0.0	 0.0	 0.0	 0.0; % COW
	73	 318.0	 68.0	 344.0	 -344.0	 1.05	 100.0	 1	 688	 0.0	 0.0	 0.0	 0.0	 0.0	 0.0	 0.0	 0.0	 0.0	 0.0	 0.0	 0.0; % COW
	75	 0.0	 263.0	 315.6	 -315.6	 1.0	 100.0	 1	 0	 0.0	 0.0	 0.0	 0.0	 0.0	 0.0	 0.0	 0.0	 0.0	 0.0	 0.0	 0.0; % SYNC
	76	 0.0	 263.0	 315.6	 -315.6	 1.0	 100.0	 1	 0	 0.0	 0.0	 0.0	 0.0	 0.0	 0.0	 0.0	 0.0	 0.0	 0.0	 0.0	 0.0; % SYNC
	77	 0.0	 260.0	 312.0	 -312.0	 1.0	 100.0	 1	 0	 0.0	 0.0	 0.0	 0.0	 0.0	 0.0	 0.0	 0.0	 0.0	 0.0	 0.0	 0.0; % SYNC
	78	 0.0	 257.0	 308.4	 -308.4	 1.0	 100.0	 1	 0	 0.0	 0.0	 0.0	 0.0	 0.0	 0.0	 0.0	 0.0	 0.0	 0.0	 0.0	 0.0; % SYNC
	80	 430.0	 48.0	 367.0	 -234.0	 1.05	 100.0	 1	 467	 0.0	 0.0	 0.0	 0.0	 0.0	 0.0	 0.0	 0.0	 0.0	 0.0	 0.0	 0.0; % COW
	81	 439.0	 58.0	 351.0	 -260.0	 1.05	 100.0	 1	 520	 0.0	 0.0	 0.0	 0.0	 0.0	 0.0	 0.0	 0.0	 0.0	 0.0	 0.0	 0.0; % COW
	83	 574.0	 107.0	 392.0	 -324.0	 1.05	 100.0	 1	 648	 0.0	 0.0	 0.0	 0.0	 0.0	 0.0	 0.0	 0.0	 0.0	 0.0	 0.0	 0.0; % NG
	84	 566.0	 101.0	 398.0	 -290.0	 1.05	 100.0	 1	 579	 0.0	 0.0	 0.0	 0.0	 0.0	 0.0	 0.0	 0.0	 0.0	 0.0	 0.0	 0.0; % COW
	85	 587.0	 120.0	 367.0	 -299.0	 1.05	 100.0	 1	 598	 0.0	 0.0	 0.0	 0.0	 0.0	 0.0	 0.0	 0.0	 0.0	 0.0	 0.0	 0.0; % COW
	86	 594.0	 121.0	 362.0	 -315.0	 1.05	 100.0	 1	 630	 0.0	 0.0	 0.0	 0.0	 0.0	 0.0	 0.0	 0.0	 0.0	 0.0	 0.0	 0.0; % COW
	88	 1345.0	 266.0	 760.0	 -760.0	 1.05	 100.0	 1	 1519	 0.0	 0.0	 0.0	 0.0	 0.0	 0.0	 0.0	 0.0	 0.0	 0.0	 0.0	 0.0; % NG
	89	 1396.0	 272.0	 1019.0	 -1019.0	 1.05	 100.0	 1	 2038	 0.0	 0.0	 0.0	 0.0	 0.0	 0.0	 0.0	 0.0	 0.0	 0.0	 0.0	 0.0; % COW
	91	 836.0	 296.0	 560.0	 -560.0	 1.05	 100.0	 1	 1119	 0.0	 0.0	 0.0	 0.0	 0.0	 0.0	 0.0	 0.0	 0.0	 0.0	 0.0	 0.0; % COW
	92	 810.0	 293.0	 470.0	 -470.0	 1.05	 100.0	 1	 940	 0.0	 0.0	 0.0	 0.0	 0.0	 0.0	 0.0	 0.0	 0.0	 0.0	 0.0	 0.0; % PEL
	94	 116.0	 99.0	 166.0	 -166.0	 1.05	 100.0	 1	 332	 0.0	 0.0	 0.0	 0.0	 0.0	 0.0	 0.0	 0.0	 0.0	 0.0	 0.0	 0.0; % COW
	96	 116.0	 -25.0	 221.0	 -221.0	 1.05	 100.0	 1	 441	 0.0	 0.0	 0.0	 0.0	 0.0	 0.0	 0.0	 0.0	 0.0	 0.0	 0.0	 0.0; % NG
	97	 116.0	 -25.0	 145.9	 -82.0	 1.05	 100.0	 1	 163	 0.0	 0.0	 0.0	 0.0	 0.0	 0.0	 0.0	 0.0	 0.0	 0.0	 0.0	 0.0; % NG
	99	 72.0	 -14.0	 87.2	 -52.8	 1.05	 100.0	 1	 92	 0.0	 0.0	 0.0	 0.0	 0.0	 0.0	 0.0	 0.0	 0.0	 0.0	 0.0	 0.0; % NG
	100	 74.0	 -5.0	 88.0	 -88.0	 1.05	 100.0	 1	 176	 0.0	 0.0	 0.0	 0.0	 0.0	 0.0	 0.0	 0.0	 0.0	 0.0	 0.0	 0.0; % NG
	101	 72.0	 -14.0	 87.2	 -67.0	 1.05	 100.0	 1	 134	 0.0	 0.0	 0.0	 0.0	 0.0	 0.0	 0.0	 0.0	 0.0	 0.0	 0.0	 0.0; % NG
	102	 72.0	 -14.0	 139.0	 -139.0	 1.05	 100.0	 1	 277	 0.0	 0.0	 0.0	 0.0	 0.0	 0.0	 0.0	 0.0	 0.0	 0.0	 0.0	 0.0; % COW
	103	 74.0	 -11.0	 107.0	 -107.0	 1.05	 100.0	 1	 214	 0.0	 0.0	 0.0	 0.0	 0.0	 0.0	 0.0	 0.0	 0.0	 0.0	 0.0	 0.0; % NG
	104	 74.0	 -11.0	 103.0	 -55.0	 1.05	 100.0	 1	 76	 0.0	 0.0	 0.0	 0.0	 0.0	 0.0	 0.0	 0.0	 0.0	 0.0	 0.0	 0.0; % COW
	105	 72.0	 -14.0	 75.92	 -52.46	 1.05	 100.0	 1	 98	 0.0	 0.0	 0.0	 0.0	 0.0	 0.0	 0.0	 0.0	 0.0	 0.0	 0.0	 0.0; % NG
	106	 72.0	 -14.0	 75.92	 -52.46	 1.05	 100.0	 1	 76	 0.0	 0.0	 0.0	 0.0	 0.0	 0.0	 0.0	 0.0	 0.0	 0.0	 0.0	 0.0; % NG
	107	 72.0	 -14.0	 75.92	 -53.0	 1.05	 100.0	 1	 105	 0.0	 0.0	 0.0	 0.0	 0.0	 0.0	 0.0	 0.0	 0.0	 0.0	 0.0	 0.0; % NG
	108	 78.0	 -10.0	 184.0	 -184.0	 1.05	 100.0	 1	 367	 0.0	 0.0	 0.0	 0.0	 0.0	 0.0	 0.0	 0.0	 0.0	 0.0	 0.0	 0.0; % NG
	110	 583.0	 110.0	 767.0	 -767.0	 1.05	 100.0	 1	 1534	 0.0	 0.0	 0.0	 0.0	 0.0	 0.0	 0.0	 0.0	 0.0	 0.0	 0.0	 0.0; % COW
	111	 585.0	 112.0	 435.0	 -435.0	 1.05	 100.0	 1	 870	 0.0	 0.0	 0.0	 0.0	 0.0	 0.0	 0.0	 0.0	 0.0	 0.0	 0.0	 0.0; % NUC
	113	 124.0	 75.0	 286.0	 -201.0	 1.05	 100.0	 1	 402	 0.0	 0.0	 0.0	 0.0	 0.0	 0.0	 0.0	 0.0	 0.0	 0.0	 0.0	 0.0; % COW
	114	 121.0	 74.0	 286.0	 -208.0	 1.05	 100.0	 1	 416	 0.0	 0.0	 0.0	 0.0	 0.0	 0.0	 0.0	 0.0	 0.0	 0.0	 0.0	 0.0; % COW
	116	 6.0	 -39.0	 128.0	 -78.0	 1.05	 100.0	 1	 13	 0.0	 0.0	 0.0	 0.0	 0.0	 0.0	 0.0	 0.0	 0.0	 0.0	 0.0	 0.0; % NG
	117	 6.0	 -40.0	 128.0	 -78.0	 1.05	 100.0	 1	 19	 0.0	 0.0	 0.0	 0.0	 0.0	 0.0	 0.0	 0.0	 0.0	 0.0	 0.0	 0.0; % NG
	118	 6.0	 -46.0	 158.0	 -84.0	 1.05	 100.0	 1	 28	 0.0	 0.0	 0.0	 0.0	 0.0	 0.0	 0.0	 0.0	 0.0	 0.0	 0.0	 0.0; % NG
	120	 44.0	 14.0	 335.0	 -204.0	 1.05	 100.0	 1	 110	 0.0	 0.0	 0.0	 0.0	 0.0	 0.0	 0.0	 0.0	 0.0	 0.0	 0.0	 0.0; % COW
	121	 44.0	 12.0	 335.0	 -204.0	 1.05	 100.0	 1	 146	 0.0	 0.0	 0.0	 0.0	 0.0	 0.0	 0.0	 0.0	 0.0	 0.0	 0.0	 0.0; % COW
	122	 0.0	 239.0	 286.8	 -286.8	 1.0	 100.0	 1	 0	 0.0	 0.0	 0.0	 0.0	 0.0	 0.0	 0.0	 0.0	 0.0	 0.0	 0.0	 0.0; % SYNC
	124	 3.0	 5.0	 149.0	 -88.0	 1.05	 100.0	 1	 9	 0.0	 0.0	 0.0	 0.0	 0.0	 0.0	 0.0	 0.0	 0.0	 0.0	 0.0	 0.0; % COW
	125	 3.0	 5.0	 151.0	 -87.0	 1.05	 100.0	 1	 9	 0.0	 0.0	 0.0	 0.0	 0.0	 0.0	 0.0	 0.0	 0.0	 0.0	 0.0	 0.0; % NG
	126	 3.0	 5.0	 164.0	 -81.0	 1.05	 100.0	 1	 9	 0.0	 0.0	 0.0	 0.0	 0.0	 0.0	 0.0	 0.0	 0.0	 0.0	 0.0	 0.0; % COW
	128	 728.0	 204.0	 405.0	 -405.0	 1.05	 100.0	 1	 810	 0.0	 0.0	 0.0	 0.0	 0.0	 0.0	 0.0	 0.0	 0.0	 0.0	 0.0	 0.0; % COW
	129	 1085.0	 251.0	 690.0	 -690.0	 1.05	 100.0	 1	 1380	 0.0	 0.0	 0.0	 0.0	 0.0	 0.0	 0.0	 0.0	 0.0	 0.0	 0.0	 0.0; % COW
	131	 1463.0	 251.0	 794.0	 -794.0	 1.05	 100.0	 1	 1587	 0.0	 0.0	 0.0	 0.0	 0.0	 0.0	 0.0	 0.0	 0.0	 0.0	 0.0	 0.0; % COW
	132	 1167.0	 204.0	 812.0	 -812.0	 1.05	 100.0	 1	 1624	 0.0	 0.0	 0.0	 0.0	 0.0	 0.0	 0.0	 0.0	 0.0	 0.0	 0.0	 0.0; % COW
	134	 350.0	 78.0	 270.0	 -240.0	 1.05	 100.0	 1	 479	 0.0	 0.0	 0.0	 0.0	 0.0	 0.0	 0.0	 0.0	 0.0	 0.0	 0.0	 0.0; % COW
	135	 353.0	 77.0	 378.0	 -378.0	 1.05	 100.0	 1	 756	 0.0	 0.0	 0.0	 0.0	 0.0	 0.0	 0.0	 0.0	 0.0	 0.0	 0.0	 0.0; % COW
	137	 187.0	 43.0	 147.0	 -147.0	 1.05	 100.0	 1	 294	 0.0	 0.0	 0.0	 0.0	 0.0	 0.0	 0.0	 0.0	 0.0	 0.0	 0.0	 0.0; % NG
	138	 209.0	 63.0	 143.0	 -143.0	 1.05	 100.0	 1	 286	 0.0	 0.0	 0.0	 0.0	 0.0	 0.0	 0.0	 0.0	 0.0	 0.0	 0.0	 0.0; % NG
	139	 185.0	 43.0	 190.0	 -190.0	 1.05	 100.0	 1	 379	 0.0	 0.0	 0.0	 0.0	 0.0	 0.0	 0.0	 0.0	 0.0	 0.0	 0.0	 0.0; % NG
	140	 306.0	 92.0	 235.0	 -235.0	 1.05	 100.0	 1	 469	 0.0	 0.0	 0.0	 0.0	 0.0	 0.0	 0.0	 0.0	 0.0	 0.0	 0.0	 0.0; % NG
	142	 1392.0	 494.0	 755.0	 -755.0	 1.05	 100.0	 1	 1510	 0.0	 0.0	 0.0	 0.0	 0.0	 0.0	 0.0	 0.0	 0.0	 0.0	 0.0	 0.0; % COW
	143	 1388.0	 493.0	 753.0	 -753.0	 1.05	 100.0	 1	 1505	 0.0	 0.0	 0.0	 0.0	 0.0	 0.0	 0.0	 0.0	 0.0	 0.0	 0.0	 0.0; % COW
	145	 81.0	 -9.0	 72.0	 -48.0	 1.05	 100.0	 1	 90	 0.0	 0.0	 0.0	 0.0	 0.0	 0.0	 0.0	 0.0	 0.0	 0.0	 0.0	 0.0; % NG
	146	 81.0	 -6.0	 82.0	 -82.0	 1.05	 100.0	 1	 163	 0.0	 0.0	 0.0	 0.0	 0.0	 0.0	 0.0	 0.0	 0.0	 0.0	 0.0	 0.0; % COW
	147	 81.0	 -6.0	 101.0	 -101.0	 1.05	 100.0	 1	 201	 0.0	 0.0	 0.0	 0.0	 0.0	 0.0	 0.0	 0.0	 0.0	 0.0	 0.0	 0.0; % NG
	148	 80.0	 -7.0	 78.0	 -78.0	 1.05	 100.0	 1	 155	 0.0	 0.0	 0.0	 0.0	 0.0	 0.0	 0.0	 0.0	 0.0	 0.0	 0.0	 0.0; % NG
	150	 80.0	 -7.0	 72.0	 -58.0	 1.05	 100.0	 1	 116	 0.0	 0.0	 0.0	 0.0	 0.0	 0.0	 0.0	 0.0	 0.0	 0.0	 0.0	 0.0; % COW
	151	 80.0	 -9.0	 72.0	 -48.0	 1.05	 100.0	 1	 86	 0.0	 0.0	 0.0	 0.0	 0.0	 0.0	 0.0	 0.0	 0.0	 0.0	 0.0	 0.0; % NG
	152	 80.0	 -7.0	 72.0	 -56.0	 1.05	 100.0	 1	 111	 0.0	 0.0	 0.0	 0.0	 0.0	 0.0	 0.0	 0.0	 0.0	 0.0	 0.0	 0.0; % NG
	153	 80.0	 -7.0	 185.0	 -185.0	 1.05	 100.0	 1	 369	 0.0	 0.0	 0.0	 0.0	 0.0	 0.0	 0.0	 0.0	 0.0	 0.0	 0.0	 0.0; % NG
	154	 116.0	 12.0	 192.0	 -141.0	 1.05	 100.0	 1	 282	 0.0	 0.0	 0.0	 0.0	 0.0	 0.0	 0.0	 0.0	 0.0	 0.0	 0.0	 0.0; % COW
	155	 114.0	 15.0	 192.0	 -130.0	 1.05	 100.0	 1	 260	 0.0	 0.0	 0.0	 0.0	 0.0	 0.0	 0.0	 0.0	 0.0	 0.0	 0.0	 0.0; % NG
	156	 0.0	 3.0	 3.6	 -3.6	 1.01	 100.0	 1	 0	 0.0	 0.0	 0.0	 0.0	 0.0	 0.0	 0.0	 0.0	 0.0	 0.0	 0.0	 0.0; % SYNC
	158	 0.0	 147.0	 176.4	 -176.4	 0.99	 100.0	 1	 0	 0.0	 0.0	 0.0	 0.0	 0.0	 0.0	 0.0	 0.0	 0.0	 0.0	 0.0	 0.0; % SYNC
	159	 667.0	 77.0	 578.0	 -578.0	 1.05	 100.0	 1	 1156	 0.0	 0.0	 0.0	 0.0	 0.0	 0.0	 0.0	 0.0	 0.0	 0.0	 0.0	 0.0; % COW
	161	 394.0	 119.0	 250.0	 -250.0	 1.05	 100.0	 1	 500	 0.0	 0.0	 0.0	 0.0	 0.0	 0.0	 0.0	 0.0	 0.0	 0.0	 0.0	 0.0; % NG
	162	 350.0	 31.0	 202.0	 -202.0	 1.05	 100.0	 1	 403	 0.0	 0.0	 0.0	 0.0	 0.0	 0.0	 0.0	 0.0	 0.0	 0.0	 0.0	 0.0; % NG
	164	 386.0	 171.0	 687.0	 -687.0	 1.05	 100.0	 1	 1374	 0.0	 0.0	 0.0	 0.0	 0.0	 0.0	 0.0	 0.0	 0.0	 0.0	 0.0	 0.0; % COW
	165	 383.0	 167.0	 365.0	 -365.0	 1.05	 100.0	 1	 730	 0.0	 0.0	 0.0	 0.0	 0.0	 0.0	 0.0	 0.0	 0.0	 0.0	 0.0	 0.0; % COW
	166	 383.0	 173.0	 375.0	 -375.0	 1.05	 100.0	 1	 749	 0.0	 0.0	 0.0	 0.0	 0.0	 0.0	 0.0	 0.0	 0.0	 0.0	 0.0	 0.0; % COW
	167	 384.0	 171.0	 287.0	 -205.2	 1.05	 100.0	 1	 387	 0.0	 0.0	 0.0	 0.0	 0.0	 0.0	 0.0	 0.0	 0.0	 0.0	 0.0	 0.0; % COW
	169	 179.0	 -15.0	 182.0	 -137.0	 1.05	 100.0	 1	 274	 0.0	 0.0	 0.0	 0.0	 0.0	 0.0	 0.0	 0.0	 0.0	 0.0	 0.0	 0.0; % COW
	170	 176.0	 -16.0	 179.0	 -102.0	 1.05	 100.0	 1	 203	 0.0	 0.0	 0.0	 0.0	 0.0	 0.0	 0.0	 0.0	 0.0	 0.0	 0.0	 0.0; % NG
	171	 180.0	 -14.0	 176.0	 -161.0	 1.05	 100.0	 1	 322	 0.0	 0.0	 0.0	 0.0	 0.0	 0.0	 0.0	 0.0	 0.0	 0.0	 0.0	 0.0; % NG
	172	 184.0	 -6.0	 178.0	 -127.0	 1.05	 100.0	 1	 254	 0.0	 0.0	 0.0	 0.0	 0.0	 0.0	 0.0	 0.0	 0.0	 0.0	 0.0	 0.0; % NG
	174	 282.0	 108.0	 234.0	 -234.0	 1.05	 100.0	 1	 467	 0.0	 0.0	 0.0	 0.0	 0.0	 0.0	 0.0	 0.0	 0.0	 0.0	 0.0	 0.0; % COW
	175	 281.0	 108.0	 220.0	 -150.0	 1.05	 100.0	 1	 300	 0.0	 0.0	 0.0	 0.0	 0.0	 0.0	 0.0	 0.0	 0.0	 0.0	 0.0	 0.0; % NG
	176	 280.0	 108.0	 220.0	 -215.0	 1.05	 100.0	 1	 430	 0.0	 0.0	 0.0	 0.0	 0.0	 0.0	 0.0	 0.0	 0.0	 0.0	 0.0	 0.0; % COW
	177	 281.0	 108.0	 221.0	 -190.0	 1.05	 100.0	 1	 380	 0.0	 0.0	 0.0	 0.0	 0.0	 0.0	 0.0	 0.0	 0.0	 0.0	 0.0	 0.0; % NG
	178	 199.0	 3.0	 132.0	 -132.0	 1.05	 100.0	 1	 264	 0.0	 0.0	 0.0	 0.0	 0.0	 0.0	 0.0	 0.0	 0.0	 0.0	 0.0	 0.0; % NG
	179	 199.0	 3.0	 129.0	 -129.0	 1.05	 100.0	 1	 258	 0.0	 0.0	 0.0	 0.0	 0.0	 0.0	 0.0	 0.0	 0.0	 0.0	 0.0	 0.0; % COW
	180	 208.0	 11.0	 507.0	 -507.0	 1.05	 100.0	 1	 1014	 0.0	 0.0	 0.0	 0.0	 0.0	 0.0	 0.0	 0.0	 0.0	 0.0	 0.0	 0.0; % COW
	182	 0.0	 32.0	 38.4	 -38.4	 1.01	 100.0	 1	 0	 0.0	 0.0	 0.0	 0.0	 0.0	 0.0	 0.0	 0.0	 0.0	 0.0	 0.0	 0.0; % SYNC
	184	 75.0	 -12.0	 103.0	 -72.0	 1.05	 100.0	 1	 143	 0.0	 0.0	 0.0	 0.0	 0.0	 0.0	 0.0	 0.0	 0.0	 0.0	 0.0	 0.0; % NG
	185	 75.0	 -12.0	 96.0	 -85.0	 1.05	 100.0	 1	 170	 0.0	 0.0	 0.0	 0.0	 0.0	 0.0	 0.0	 0.0	 0.0	 0.0	 0.0	 0.0; % NG
	186	 75.0	 -10.0	 94.0	 -61.0	 1.05	 100.0	 1	 121	 0.0	 0.0	 0.0	 0.0	 0.0	 0.0	 0.0	 0.0	 0.0	 0.0	 0.0	 0.0; % NG
	187	 80.0	 13.0	 164.0	 -91.0	 1.05	 100.0	 1	 105	 0.0	 0.0	 0.0	 0.0	 0.0	 0.0	 0.0	 0.0	 0.0	 0.0	 0.0	 0.0; % NG
	188	 146.0	 76.0	 99.0	 -99.0	 1.05	 100.0	 1	 198	 0.0	 0.0	 0.0	 0.0	 0.0	 0.0	 0.0	 0.0	 0.0	 0.0	 0.0	 0.0; % NG
	189	 146.0	 82.0	 114.0	 -114.0	 1.05	 100.0	 1	 227	 0.0	 0.0	 0.0	 0.0	 0.0	 0.0	 0.0	 0.0	 0.0	 0.0	 0.0	 0.0; % COW
	190	 152.0	 94.0	 154.0	 -149.0	 1.05	 100.0	 1	 298	 0.0	 0.0	 0.0	 0.0	 0.0	 0.0	 0.0	 0.0	 0.0	 0.0	 0.0	 0.0; % NG
	191	 75.0	 -13.0	 94.0	 -87.0	 1.05	 100.0	 1	 174	 0.0	 0.0	 0.0	 0.0	 0.0	 0.0	 0.0	 0.0	 0.0	 0.0	 0.0	 0.0; % NG
	192	 75.0	 -13.0	 94.0	 -57.0	 1.05	 100.0	 1	 83	 0.0	 0.0	 0.0	 0.0	 0.0	 0.0	 0.0	 0.0	 0.0	 0.0	 0.0	 0.0; % NG
	193	 75.0	 -11.0	 107.0	 -57.0	 1.05	 100.0	 1	 79	 0.0	 0.0	 0.0	 0.0	 0.0	 0.0	 0.0	 0.0	 0.0	 0.0	 0.0	 0.0; % NG
	195	 202.0	 54.0	 225.6	 -199.0	 1.05	 100.0	 1	 397	 0.0	 0.0	 0.0	 0.0	 0.0	 0.0	 0.0	 0.0	 0.0	 0.0	 0.0	 0.0; % COW
	196	 202.0	 54.0	 225.6	 -123.0	 1.05	 100.0	 1	 224	 0.0	 0.0	 0.0	 0.0	 0.0	 0.0	 0.0	 0.0	 0.0	 0.0	 0.0	 0.0; % NG
	197	 202.0	 54.0	 229.4	 -119.0	 1.05	 100.0	 1	 237	 0.0	 0.0	 0.0	 0.0	 0.0	 0.0	 0.0	 0.0	 0.0	 0.0	 0.0	 0.0; % NG
	199	 231.0	 58.0	 134.29	 -132.0	 1.05	 100.0	 1	 263	 0.0	 0.0	 0.0	 0.0	 0.0	 0.0	 0.0	 0.0	 0.0	 0.0	 0.0	 0.0; % NG
	200	 231.0	 58.0	 143.0	 -143.0	 1.05	 100.0	 1	 285	 0.0	 0.0	 0.0	 0.0	 0.0	 0.0	 0.0	 0.0	 0.0	 0.0	 0.0	 0.0; % COW
	201	 231.0	 67.0	 248.0	 -248.0	 1.05	 100.0	 1	 495	 0.0	 0.0	 0.0	 0.0	 0.0	 0.0	 0.0	 0.0	 0.0	 0.0	 0.0	 0.0; % NG
	203	 298.0	 130.0	 287.0	 -287.0	 1.05	 100.0	 1	 574	 0.0	 0.0	 0.0	 0.0	 0.0	 0.0	 0.0	 0.0	 0.0	 0.0	 0.0	 0.0; % COW
	204	 298.0	 130.0	 278.0	 -278.0	 1.05	 100.0	 1	 556	 0.0	 0.0	 0.0	 0.0	 0.0	 0.0	 0.0	 0.0	 0.0	 0.0	 0.0	 0.0; % NG
	205	 298.0	 130.0	 190.0	 -190.0	 1.05	 100.0	 1	 379	 0.0	 0.0	 0.0	 0.0	 0.0	 0.0	 0.0	 0.0	 0.0	 0.0	 0.0	 0.0; % NG
	206	 412.0	 57.0	 288.0	 -288.0	 1.05	 100.0	 1	 575	 0.0	 0.0	 0.0	 0.0	 0.0	 0.0	 0.0	 0.0	 0.0	 0.0	 0.0	 0.0; % NG
	208	 404.0	 145.0	 383.0	 -383.0	 1.05	 100.0	 1	 766	 0.0	 0.0	 0.0	 0.0	 0.0	 0.0	 0.0	 0.0	 0.0	 0.0	 0.0	 0.0; % COW
	209	 30.0	 -7.0	 57.0	 -57.0	 1.05	 100.0	 1	 113	 0.0	 0.0	 0.0	 0.0	 0.0	 0.0	 0.0	 0.0	 0.0	 0.0	 0.0	 0.0; % NG
	211	 253.0	 18.0	 189.9	 -172.0	 1.05	 100.0	 1	 343	 0.0	 0.0	 0.0	 0.0	 0.0	 0.0	 0.0	 0.0	 0.0	 0.0	 0.0	 0.0; % NG
	212	 253.0	 18.0	 196.2	 -143.8	 1.05	 100.0	 1	 257	 0.0	 0.0	 0.0	 0.0	 0.0	 0.0	 0.0	 0.0	 0.0	 0.0	 0.0	 0.0; % NG
	213	 336.0	 35.0	 313.0	 -197.0	 1.05	 100.0	 1	 394	 0.0	 0.0	 0.0	 0.0	 0.0	 0.0	 0.0	 0.0	 0.0	 0.0	 0.0	 0.0; % COW
	215	 82.0	 34.0	 166.0	 -93.0	 1.05	 100.0	 1	 158	 0.0	 0.0	 0.0	 0.0	 0.0	 0.0	 0.0	 0.0	 0.0	 0.0	 0.0	 0.0; % NG
	216	 82.0	 34.0	 155.0	 -94.0	 1.05	 100.0	 1	 85	 0.0	 0.0	 0.0	 0.0	 0.0	 0.0	 0.0	 0.0	 0.0	 0.0	 0.0	 0.0; % NG
	217	 82.0	 34.0	 159.0	 -89.0	 1.05	 100.0	 1	 103	 0.0	 0.0	 0.0	 0.0	 0.0	 0.0	 0.0	 0.0	 0.0	 0.0	 0.0	 0.0; % NG
	219	 70.0	 80.0	 167.0	 -106.0	 1.05	 100.0	 1	 105	 0.0	 0.0	 0.0	 0.0	 0.0	 0.0	 0.0	 0.0	 0.0	 0.0	 0.0	 0.0; % NG
	220	 70.0	 80.0	 167.0	 -120.0	 1.05	 100.0	 1	 240	 0.0	 0.0	 0.0	 0.0	 0.0	 0.0	 0.0	 0.0	 0.0	 0.0	 0.0	 0.0; % COW
	221	 70.0	 80.0	 196.0	 -147.0	 1.05	 100.0	 1	 293	 0.0	 0.0	 0.0	 0.0	 0.0	 0.0	 0.0	 0.0	 0.0	 0.0	 0.0	 0.0; % COW
	222	 83.0	 -94.0	 220.0	 -136.73	 1.05	 100.0	 1	 128	 0.0	 0.0	 0.0	 0.0	 0.0	 0.0	 0.0	 0.0	 0.0	 0.0	 0.0	 0.0; % COW
	224	 116.0	 -2.0	 248.68	 -148.0	 1.05	 100.0	 1	 296	 0.0	 0.0	 0.0	 0.0	 0.0	 0.0	 0.0	 0.0	 0.0	 0.0	 0.0	 0.0; % COW
	225	 116.0	 -2.0	 248.68	 -139.23	 1.05	 100.0	 1	 152	 0.0	 0.0	 0.0	 0.0	 0.0	 0.0	 0.0	 0.0	 0.0	 0.0	 0.0	 0.0; % NG
	226	 116.0	 -2.0	 248.68	 -209.0	 1.05	 100.0	 1	 418	 0.0	 0.0	 0.0	 0.0	 0.0	 0.0	 0.0	 0.0	 0.0	 0.0	 0.0	 0.0; % COW
	228	 981.0	 157.0	 606.0	 -606.0	 1.02	 100.0	 1	 1212	 0.0	 0.0	 0.0	 0.0	 0.0	 0.0	 0.0	 0.0	 0.0	 0.0	 0.0	 0.0; % COW
	229	 981.0	 157.0	 535.0	 -535.0	 1.02	 100.0	 1	 1070	 0.0	 0.0	 0.0	 0.0	 0.0	 0.0	 0.0	 0.0	 0.0	 0.0	 0.0	 0.0; % COW
	231	 652.0	 52.0	 527.0	 -527.0	 1.05	 100.0	 1	 1053	 0.0	 0.0	 0.0	 0.0	 0.0	 0.0	 0.0	 0.0	 0.0	 0.0	 0.0	 0.0; % COW
	232	 652.0	 52.0	 395.0	 -395.0	 1.05	 100.0	 1	 790	 0.0	 0.0	 0.0	 0.0	 0.0	 0.0	 0.0	 0.0	 0.0	 0.0	 0.0	 0.0; % COW
	234	 32.0	 -3.0	 32.0	 -32.0	 1.05	 100.0	 1	 63	 0.0	 0.0	 0.0	 0.0	 0.0	 0.0	 0.0	 0.0	 0.0	 0.0	 0.0	 0.0; % NG
	235	 32.0	 -3.0	 30.0	 -30.0	 1.05	 100.0	 1	 60	 0.0	 0.0	 0.0	 0.0	 0.0	 0.0	 0.0	 0.0	 0.0	 0.0	 0.0	 0.0; % NG
	236	 32.0	 -3.0	 25.0	 -23.0	 1.05	 100.0	 1	 46	 0.0	 0.0	 0.0	 0.0	 0.0	 0.0	 0.0	 0.0	 0.0	 0.0	 0.0	 0.0; % NG
	237	 32.0	 -3.0	 28.0	 -28.0	 1.05	 100.0	 1	 56	 0.0	 0.0	 0.0	 0.0	 0.0	 0.0	 0.0	 0.0	 0.0	 0.0	 0.0	 0.0; % PEL
	238	 32.0	 -3.0	 41.0	 -41.0	 1.05	 100.0	 1	 81	 0.0	 0.0	 0.0	 0.0	 0.0	 0.0	 0.0	 0.0	 0.0	 0.0	 0.0	 0.0; % PEL
	239	 32.0	 -3.0	 25.0	 -16.0	 1.05	 100.0	 1	 32	 0.0	 0.0	 0.0	 0.0	 0.0	 0.0	 0.0	 0.0	 0.0	 0.0	 0.0	 0.0; % NG
	241	 78.0	 8.0	 158.63	 -90.39	 1.05	 100.0	 1	 80	 0.0	 0.0	 0.0	 0.0	 0.0	 0.0	 0.0	 0.0	 0.0	 0.0	 0.0	 0.0; % NG
	242	 78.0	 8.0	 158.63	 -90.39	 1.05	 100.0	 1	 85	 0.0	 0.0	 0.0	 0.0	 0.0	 0.0	 0.0	 0.0	 0.0	 0.0	 0.0	 0.0; % COW
	243	 64.0	 -11.0	 74.57	 -65.0	 1.05	 100.0	 1	 129	 0.0	 0.0	 0.0	 0.0	 0.0	 0.0	 0.0	 0.0	 0.0	 0.0	 0.0	 0.0; % NG
	244	 64.0	 -11.0	 79.0	 -79.0	 1.05	 100.0	 1	 157	 0.0	 0.0	 0.0	 0.0	 0.0	 0.0	 0.0	 0.0	 0.0	 0.0	 0.0	 0.0; % NG
	249	 286.0	 -60.0	 194.0	 -182.0	 1.05	 100.0	 1	 363	 0.0	 0.0	 0.0	 0.0	 0.0	 0.0	 0.0	 0.0	 0.0	 0.0	 0.0	 0.0; % NG
	251	 250.0	 -109.0	 341.0	 -341.0	 1.05	 100.0	 1	 682	 0.0	 0.0	 0.0	 0.0	 0.0	 0.0	 0.0	 0.0	 0.0	 0.0	 0.0	 0.0; % NG
	253	 53.0	 2.0	 95.0	 -95.0	 1.05	 100.0	 1	 190	 0.0	 0.0	 0.0	 0.0	 0.0	 0.0	 0.0	 0.0	 0.0	 0.0	 0.0	 0.0; % NG
	254	 62.0	 -20.0	 100.0	 -71.0	 1.05	 100.0	 1	 141	 0.0	 0.0	 0.0	 0.0	 0.0	 0.0	 0.0	 0.0	 0.0	 0.0	 0.0	 0.0; % NG
	256	 31.0	 -4.0	 28.0	 -28.0	 1.05	 100.0	 1	 56	 0.0	 0.0	 0.0	 0.0	 0.0	 0.0	 0.0	 0.0	 0.0	 0.0	 0.0	 0.0; % PEL
	257	 31.0	 -4.0	 39.0	 -39.0	 1.05	 100.0	 1	 77	 0.0	 0.0	 0.0	 0.0	 0.0	 0.0	 0.0	 0.0	 0.0	 0.0	 0.0	 0.0; % NG
	258	 31.0	 -4.0	 24.0	 -21.0	 1.05	 100.0	 1	 41	 0.0	 0.0	 0.0	 0.0	 0.0	 0.0	 0.0	 0.0	 0.0	 0.0	 0.0	 0.0; % PEL
	259	 34.0	 -5.0	 34.0	 -18.0	 1.05	 100.0	 1	 36	 0.0	 0.0	 0.0	 0.0	 0.0	 0.0	 0.0	 0.0	 0.0	 0.0	 0.0	 0.0; % PEL
	261	 471.0	 -5.0	 331.5	 -328.0	 1.05	 100.0	 1	 655	 0.0	 0.0	 0.0	 0.0	 0.0	 0.0	 0.0	 0.0	 0.0	 0.0	 0.0	 0.0; % COW
	263	 85.0	 19.0	 71.0	 -71.0	 1.05	 100.0	 1	 141	 0.0	 0.0	 0.0	 0.0	 0.0	 0.0	 0.0	 0.0	 0.0	 0.0	 0.0	 0.0; % NG
	264	 84.0	 19.0	 106.0	 -106.0	 1.05	 100.0	 1	 211	 0.0	 0.0	 0.0	 0.0	 0.0	 0.0	 0.0	 0.0	 0.0	 0.0	 0.0	 0.0; % NG
	265	 84.0	 19.0	 111.0	 -111.0	 1.05	 100.0	 1	 222	 0.0	 0.0	 0.0	 0.0	 0.0	 0.0	 0.0	 0.0	 0.0	 0.0	 0.0	 0.0; % NG
	270	 532.0	 187.0	 301.0	 -301.0	 1.05	 100.0	 1	 601	 0.0	 0.0	 0.0	 0.0	 0.0	 0.0	 0.0	 0.0	 0.0	 0.0	 0.0	 0.0; % NG
	272	 34.0	 -41.0	 70.0	 -51.0	 1.05	 100.0	 1	 69	 0.0	 0.0	 0.0	 0.0	 0.0	 0.0	 0.0	 0.0	 0.0	 0.0	 0.0	 0.0; % NG
	273	 32.0	 -13.0	 33.0	 -33.0	 1.05	 100.0	 1	 66	 0.0	 0.0	 0.0	 0.0	 0.0	 0.0	 0.0	 0.0	 0.0	 0.0	 0.0	 0.0; % NG
	275	 151.0	 -1.0	 143.0	 -143.0	 1.05	 100.0	 1	 285	 0.0	 0.0	 0.0	 0.0	 0.0	 0.0	 0.0	 0.0	 0.0	 0.0	 0.0	 0.0; % NG
	276	 151.0	 -1.0	 253.0	 -253.0	 1.05	 100.0	 1	 505	 0.0	 0.0	 0.0	 0.0	 0.0	 0.0	 0.0	 0.0	 0.0	 0.0	 0.0	 0.0; % COW
...
];

%% generator cost data
%	2	startup	shutdown	n	c(n-1)	...	c0
mpc.gencost = [
	2	 0.0	 0.0	 3	   0.000000	   0.351433	   0.000000; % COW
	2	 0.0	 0.0	 3	   0.000000	   0.664424	   0.000000; % COW
	2	 0.0	 0.0	 3	   0.000000	   0.198718	   0.000000; % NUC
	2	 0.0	 0.0	 3	   0.000000	   1.036098	   0.000000; % NG
	2	 0.0	 0.0	 3	   0.000000	   1.109315	   0.000000; % NG
	2	 0.0	 0.0	 3	   0.000000	   0.923802	   0.000000; % NG
	2	 0.0	 0.0	 3	   0.000000	   1.118156	   0.000000; % NG
	2	 0.0	 0.0	 3	   0.000000	   0.610364	   0.000000; % COW
	2	 0.0	 0.0	 3	   0.000000	   0.839782	   0.000000; % NG
	2	 0.0	 0.0	 3	   0.000000	   0.948544	   0.000000; % NG
	2	 0.0	 0.0	 3	   0.000000	   0.788749	   0.000000; % COW
	2	 0.0	 0.0	 3	   0.000000	   0.816068	   0.000000; % COW
	2	 0.0	 0.0	 3	   0.000000	   0.688419	   0.000000; % COW
	2	 0.0	 0.0	 3	   0.000000	   0.512080	   0.000000; % COW
	2	 0.0	 0.0	 3	   0.000000	   1.242006	   0.000000; % NG
	2	 0.0	 0.0	 3	   0.000000	   1.072205	   0.000000; % NG
	2	 0.0	 0.0	 3	   0.000000	   1.275348	   0.000000; % NG
	2	 0.0	 0.0	 3	   0.000000	   0.918218	   0.000000; % COW
	2	 0.0	 0.0	 3	   0.000000	   0.852809	   0.000000; % COW
	2	 0.0	 0.0	 3	   0.000000	   0.594189	   0.000000; % COW
	2	 0.0	 0.0	 3	   0.000000	   0.594116	   0.000000; % COW
	2	 0.0	 0.0	 3	   0.000000	   0.979945	   0.000000; % NG
	2	 0.0	 0.0	 3	   0.000000	   1.099714	   0.000000; % NG
	2	 0.0	 0.0	 3	   0.000000	   1.132619	   0.000000; % NG
	2	 0.0	 0.0	 3	   0.000000	   0.734071	   0.000000; % NG
	2	 0.0	 0.0	 3	   0.000000	   1.301994	   0.000000; % NG
	2	 0.0	 0.0	 3	   0.000000	   0.000000	   0.000000; % SYNC
	2	 0.0	 0.0	 3	   0.000000	   0.820963	   0.000000; % COW
	2	 0.0	 0.0	 3	   0.000000	   0.485438	   0.000000; % COW
	2	 0.0	 0.0	 3	   0.000000	   1.024630	   0.000000; % COW
	2	 0.0	 0.0	 3	   0.000000	   7.283329	   0.000000; % PEL
	2	 0.0	 0.0	 3	   0.000000	   0.394184	   0.000000; % COW
	2	 0.0	 0.0	 3	   0.000000	   6.545975	   0.000000; % PEL
	2	 0.0	 0.0	 3	   0.000000	   0.761972	   0.000000; % COW
	2	 0.0	 0.0	 3	   0.000000	   0.835999	   0.000000; % COW
	2	 0.0	 0.0	 3	   0.000000	   0.779018	   0.000000; % COW
	2	 0.0	 0.0	 3	   0.000000	   0.887310	   0.000000; % COW
	2	 0.0	 0.0	 3	   0.000000	   0.223510	   0.000000; % NUC
	2	 0.0	 0.0	 3	   0.000000	   1.164610	   0.000000; % NG
	2	 0.0	 0.0	 3	   0.000000	   0.000000	   0.000000; % SYNC
	2	 0.0	 0.0	 3	   0.000000	   0.000000	   0.000000; % SYNC
	2	 0.0	 0.0	 3	   0.000000	   1.223414	   0.000000; % COW
	2	 0.0	 0.0	 3	   0.000000	   0.694452	   0.000000; % COW
	2	 0.0	 0.0	 3	   0.000000	   1.078985	   0.000000; % COW
	2	 0.0	 0.0	 3	   0.000000	   0.780998	   0.000000; % COW
	2	 0.0	 0.0	 3	   0.000000	   0.885631	   0.000000; % NG
	2	 0.0	 0.0	 3	   0.000000	   1.003434	   0.000000; % COW
	2	 0.0	 0.0	 3	   0.000000	   0.430217	   0.000000; % COW
	2	 0.0	 0.0	 3	   0.000000	   0.394586	   0.000000; % COW
	2	 0.0	 0.0	 3	   0.000000	   0.839874	   0.000000; % COW
	2	 0.0	 0.0	 3	   0.000000	   0.631979	   0.000000; % COW
	2	 0.0	 0.0	 3	   0.000000	   0.000000	   0.000000; % SYNC
	2	 0.0	 0.0	 3	   0.000000	   0.000000	   0.000000; % SYNC
	2	 0.0	 0.0	 3	   0.000000	   0.000000	   0.000000; % SYNC
	2	 0.0	 0.0	 3	   0.000000	   0.000000	   0.000000; % SYNC
	2	 0.0	 0.0	 3	   0.000000	   0.408878	   0.000000; % COW
	2	 0.0	 0.0	 3	   0.000000	   0.646063	   0.000000; % COW
	2	 0.0	 0.0	 3	   0.000000	   1.055377	   0.000000; % NG
	2	 0.0	 0.0	 3	   0.000000	   1.059679	   0.000000; % COW
	2	 0.0	 0.0	 3	   0.000000	   0.440274	   0.000000; % COW
	2	 0.0	 0.0	 3	   0.000000	   1.018473	   0.000000; % COW
	2	 0.0	 0.0	 3	   0.000000	   1.454794	   0.000000; % NG
	2	 0.0	 0.0	 3	   0.000000	   1.348202	   0.000000; % COW
	2	 0.0	 0.0	 3	   0.000000	   1.241707	   0.000000; % COW
	2	 0.0	 0.0	 3	   0.000000	   6.466677	   0.000000; % PEL
	2	 0.0	 0.0	 3	   0.000000	   0.579506	   0.000000; % COW
	2	 0.0	 0.0	 3	   0.000000	   1.195611	   0.000000; % NG
	2	 0.0	 0.0	 3	   0.000000	   1.392851	   0.000000; % NG
	2	 0.0	 0.0	 3	   0.000000	   1.166489	   0.000000; % NG
	2	 0.0	 0.0	 3	   0.000000	   1.134231	   0.000000; % NG
	2	 0.0	 0.0	 3	   0.000000	   0.889158	   0.000000; % NG
	2	 0.0	 0.0	 3	   0.000000	   0.755551	   0.000000; % COW
	2	 0.0	 0.0	 3	   0.000000	   1.183711	   0.000000; % NG
	2	 0.0	 0.0	 3	   0.000000	   1.090877	   0.000000; % COW
	2	 0.0	 0.0	 3	   0.000000	   1.163000	   0.000000; % NG
	2	 0.0	 0.0	 3	   0.000000	   0.884358	   0.000000; % NG
	2	 0.0	 0.0	 3	   0.000000	   1.126939	   0.000000; % NG
	2	 0.0	 0.0	 3	   0.000000	   1.207726	   0.000000; % NG
	2	 0.0	 0.0	 3	   0.000000	   1.139319	   0.000000; % COW
	2	 0.0	 0.0	 3	   0.000000	   0.189234	   0.000000; % NUC
	2	 0.0	 0.0	 3	   0.000000	   0.739446	   0.000000; % COW
	2	 0.0	 0.0	 3	   0.000000	   0.875085	   0.000000; % COW
	2	 0.0	 0.0	 3	   0.000000	   1.150727	   0.000000; % NG
	2	 0.0	 0.0	 3	   0.000000	   0.778399	   0.000000; % NG
	2	 0.0	 0.0	 3	   0.000000	   1.214169	   0.000000; % NG
	2	 0.0	 0.0	 3	   0.000000	   0.583177	   0.000000; % COW
	2	 0.0	 0.0	 3	   0.000000	   0.767262	   0.000000; % COW
	2	 0.0	 0.0	 3	   0.000000	   0.000000	   0.000000; % SYNC
	2	 0.0	 0.0	 3	   0.000000	   0.816642	   0.000000; % COW
	2	 0.0	 0.0	 3	   0.000000	   1.410622	   0.000000; % NG
	2	 0.0	 0.0	 3	   0.000000	   1.042110	   0.000000; % COW
	2	 0.0	 0.0	 3	   0.000000	   0.719183	   0.000000; % COW
	2	 0.0	 0.0	 3	   0.000000	   0.762890	   0.000000; % COW
	2	 0.0	 0.0	 3	   0.000000	   0.851018	   0.000000; % COW
	2	 0.0	 0.0	 3	   0.000000	   0.683499	   0.000000; % COW
	2	 0.0	 0.0	 3	   0.000000	   1.055873	   0.000000; % COW
	2	 0.0	 0.0	 3	   0.000000	   0.723755	   0.000000; % COW
	2	 0.0	 0.0	 3	   0.000000	   1.297455	   0.000000; % NG
	2	 0.0	 0.0	 3	   0.000000	   1.276452	   0.000000; % NG
	2	 0.0	 0.0	 3	   0.000000	   1.053126	   0.000000; % NG
	2	 0.0	 0.0	 3	   0.000000	   1.198252	   0.000000; % NG
	2	 0.0	 0.0	 3	   0.000000	   0.701471	   0.000000; % COW
	2	 0.0	 0.0	 3	   0.000000	   0.560128	   0.000000; % COW
	2	 0.0	 0.0	 3	   0.000000	   0.785290	   0.000000; % NG
	2	 0.0	 0.0	 3	   0.000000	   0.544343	   0.000000; % COW
	2	 0.0	 0.0	 3	   0.000000	   1.351223	   0.000000; % NG
	2	 0.0	 0.0	 3	   0.000000	   1.206130	   0.000000; % NG
	2	 0.0	 0.0	 3	   0.000000	   0.059287	   0.000000; % COW
	2	 0.0	 0.0	 3	   0.000000	   1.116010	   0.000000; % NG
	2	 0.0	 0.0	 3	   0.000000	   0.554123	   0.000000; % NG
	2	 0.0	 0.0	 3	   0.000000	   1.141239	   0.000000; % NG
	2	 0.0	 0.0	 3	   0.000000	   0.971260	   0.000000; % COW
	2	 0.0	 0.0	 3	   0.000000	   1.084329	   0.000000; % NG
	2	 0.0	 0.0	 3	   0.000000	   0.000000	   0.000000; % SYNC
	2	 0.0	 0.0	 3	   0.000000	   0.000000	   0.000000; % SYNC
	2	 0.0	 0.0	 3	   0.000000	   0.369070	   0.000000; % COW
	2	 0.0	 0.0	 3	   0.000000	   1.080243	   0.000000; % NG
	2	 0.0	 0.0	 3	   0.000000	   1.155080	   0.000000; % NG
	2	 0.0	 0.0	 3	   0.000000	   1.193142	   0.000000; % COW
	2	 0.0	 0.0	 3	   0.000000	   0.886525	   0.000000; % COW
	2	 0.0	 0.0	 3	   0.000000	   0.679508	   0.000000; % COW
	2	 0.0	 0.0	 3	   0.000000	   1.169916	   0.000000; % COW
	2	 0.0	 0.0	 3	   0.000000	   0.814134	   0.000000; % COW
	2	 0.0	 0.0	 3	   0.000000	   0.932441	   0.000000; % NG
	2	 0.0	 0.0	 3	   0.000000	   1.310602	   0.000000; % NG
	2	 0.0	 0.0	 3	   0.000000	   0.963325	   0.000000; % NG
	2	 0.0	 0.0	 3	   0.000000	   0.582261	   0.000000; % COW
	2	 0.0	 0.0	 3	   0.000000	   1.070574	   0.000000; % NG
	2	 0.0	 0.0	 3	   0.000000	   0.894685	   0.000000; % COW
	2	 0.0	 0.0	 3	   0.000000	   1.030889	   0.000000; % NG
	2	 0.0	 0.0	 3	   0.000000	   1.283136	   0.000000; % NG
	2	 0.0	 0.0	 3	   0.000000	   0.770684	   0.000000; % COW
	2	 0.0	 0.0	 3	   0.000000	   1.313298	   0.000000; % COW
	2	 0.0	 0.0	 3	   0.000000	   0.000000	   0.000000; % SYNC
	2	 0.0	 0.0	 3	   0.000000	   1.340187	   0.000000; % NG
	2	 0.0	 0.0	 3	   0.000000	   1.087237	   0.000000; % NG
	2	 0.0	 0.0	 3	   0.000000	   1.126960	   0.000000; % NG
	2	 0.0	 0.0	 3	   0.000000	   1.063367	   0.000000; % NG
	2	 0.0	 0.0	 3	   0.000000	   0.959731	   0.000000; % NG
	2	 0.0	 0.0	 3	   0.000000	   0.886301	   0.000000; % COW
	2	 0.0	 0.0	 3	   0.000000	   1.085419	   0.000000; % NG
	2	 0.0	 0.0	 3	   0.000000	   1.018800	   0.000000; % NG
	2	 0.0	 0.0	 3	   0.000000	   1.450877	   0.000000; % NG
	2	 0.0	 0.0	 3	   0.000000	   0.787410	   0.000000; % NG
	2	 0.0	 0.0	 3	   0.000000	   0.854582	   0.000000; % COW
	2	 0.0	 0.0	 3	   0.000000	   1.339500	   0.000000; % NG
	2	 0.0	 0.0	 3	   0.000000	   1.317866	   0.000000; % NG
	2	 0.0	 0.0	 3	   0.000000	   0.715903	   0.000000; % NG
	2	 0.0	 0.0	 3	   0.000000	   0.902168	   0.000000; % COW
	2	 0.0	 0.0	 3	   0.000000	   0.927423	   0.000000; % NG
	2	 0.0	 0.0	 3	   0.000000	   0.921962	   0.000000; % COW
	2	 0.0	 0.0	 3	   0.000000	   0.787645	   0.000000; % NG
	2	 0.0	 0.0	 3	   0.000000	   1.286447	   0.000000; % NG
	2	 0.0	 0.0	 3	   0.000000	   1.050635	   0.000000; % NG
	2	 0.0	 0.0	 3	   0.000000	   0.621138	   0.000000; % COW
	2	 0.0	 0.0	 3	   0.000000	   1.205406	   0.000000; % NG
	2	 0.0	 0.0	 3	   0.000000	   1.272599	   0.000000; % NG
	2	 0.0	 0.0	 3	   0.000000	   0.865933	   0.000000; % NG
	2	 0.0	 0.0	 3	   0.000000	   0.697363	   0.000000; % COW
	2	 0.0	 0.0	 3	   0.000000	   1.040490	   0.000000; % NG
	2	 0.0	 0.0	 3	   0.000000	   1.287184	   0.000000; % NG
	2	 0.0	 0.0	 3	   0.000000	   0.705863	   0.000000; % NG
	2	 0.0	 0.0	 3	   0.000000	   0.773274	   0.000000; % NG
	2	 0.0	 0.0	 3	   0.000000	   0.581063	   0.000000; % COW
	2	 0.0	 0.0	 3	   0.000000	   1.454150	   0.000000; % COW
	2	 0.0	 0.0	 3	   0.000000	   1.215004	   0.000000; % COW
	2	 0.0	 0.0	 3	   0.000000	   0.301184	   0.000000; % COW
	2	 0.0	 0.0	 3	   0.000000	   0.919824	   0.000000; % NG
	2	 0.0	 0.0	 3	   0.000000	   0.667317	   0.000000; % COW
	2	 0.0	 0.0	 3	   0.000000	   0.726941	   0.000000; % COW
	2	 0.0	 0.0	 3	   0.000000	   1.084700	   0.000000; % COW
	2	 0.0	 0.0	 3	   0.000000	   0.888515	   0.000000; % COW
	2	 0.0	 0.0	 3	   0.000000	   0.288166	   0.000000; % COW
	2	 0.0	 0.0	 3	   0.000000	   0.815997	   0.000000; % NG
	2	 0.0	 0.0	 3	   0.000000	   1.182980	   0.000000; % NG
	2	 0.0	 0.0	 3	   0.000000	   1.173376	   0.000000; % NG
	2	 0.0	 0.0	 3	   0.000000	   6.701807	   0.000000; % PEL
	2	 0.0	 0.0	 3	   0.000000	   6.827193	   0.000000; % PEL
	2	 0.0	 0.0	 3	   0.000000	   0.902321	   0.000000; % NG
	2	 0.0	 0.0	 3	   0.000000	   0.913930	   0.000000; % NG
	2	 0.0	 0.0	 3	   0.000000	   0.622260	   0.000000; % COW
	2	 0.0	 0.0	 3	   0.000000	   0.860274	   0.000000; % NG
	2	 0.0	 0.0	 3	   0.000000	   1.225860	   0.000000; % NG
	2	 0.0	 0.0	 3	   0.000000	   1.089117	   0.000000; % NG
	2	 0.0	 0.0	 3	   0.000000	   1.272277	   0.000000; % NG
	2	 0.0	 0.0	 3	   0.000000	   0.790134	   0.000000; % NG
	2	 0.0	 0.0	 3	   0.000000	   0.985251	   0.000000; % NG
	2	 0.0	 0.0	 3	   0.000000	   6.573474	   0.000000; % PEL
	2	 0.0	 0.0	 3	   0.000000	   0.909747	   0.000000; % NG
	2	 0.0	 0.0	 3	   0.000000	   6.254805	   0.000000; % PEL
	2	 0.0	 0.0	 3	   0.000000	   7.163375	   0.000000; % PEL
	2	 0.0	 0.0	 3	   0.000000	   0.664836	   0.000000; % COW
	2	 0.0	 0.0	 3	   0.000000	   0.946945	   0.000000; % NG
	2	 0.0	 0.0	 3	   0.000000	   0.794729	   0.000000; % NG
	2	 0.0	 0.0	 3	   0.000000	   1.045127	   0.000000; % NG
	2	 0.0	 0.0	 3	   0.000000	   0.962967	   0.000000; % NG
	2	 0.0	 0.0	 3	   0.000000	   1.069453	   0.000000; % NG
	2	 0.0	 0.0	 3	   0.000000	   1.079679	   0.000000; % NG
	2	 0.0	 0.0	 3	   0.000000	   0.924791	   0.000000; % NG
	2	 0.0	 0.0	 3	   0.000000	   1.461715	   0.000000; % COW
...
];

%% branch data
%	fbus	tbus	r	x	b	rateA	rateB	rateC	ratio	angle	status	angmin	angmax
mpc.branch = [
	1	 2	 0.00089	 0.02682	 0.0	 861.0	 861.0	 861.0	 0.9991	 0.0	 1	 -30.0	 30.0;
	1	 3	 0.00055	 0.027	 0.0	 1086.0	 1086.0	 1086.0	 0.9999	 0.0	 1	 -30.0	 30.0;
	1	 4	 0.0008	 0.02677	 0.0	 905.0	 905.0	 905.0	 0.9992	 0.0	 1	 -30.0	 30.0;
	5	 6	 0.00213	 0.11452	 0.0	 256.0	 256.0	 256.0	 1.0138	 0.0	 1	 -30.0	 30.0;
	5	 7	 0.00213	 0.11471	 0.0	 255.0	 255.0	 255.0	 1.0138	 0.0	 1	 -30.0	 30.0;
	8	 9	 0.00213	 0.11316	 0.0	 259.0	 259.0	 259.0	 1.013	 0.0	 1	 -30.0	 30.0;
	8	 10	 0.00206	 0.11458	 0.0	 255.0	 255.0	 255.0	 1.0139	 0.0	 1	 -30.0	 30.0;
	8	 11	 0.00206	 0.1149	 0.0	 255.0	 255.0	 255.0	 1.0139	 0.0	 1	 -30.0	 30.0;
	5	 12	 0.00194	 0.10912	 0.0	 268.0	 268.0	 268.0	 1.0138	 0.0	 1	 -30.0	 30.0;
	8	 13	 0.001	 0.08396	 0.0	 349.0	 349.0	 349.0	 1.0221	 0.0	 1	 -30.0	 30.0;
	14	 15	 0.0003	 0.02828	 0.0	 1037.0	 1037.0	 1037.0	 1.0282	 0.0	 1	 -30.0	 30.0;
	14	 16	 0.00048	 0.02805	 0.0	 1045.0	 1045.0	 1045.0	 1.0175	 0.0	 1	 -30.0	 30.0;
	14	 17	 0.00032	 0.02788	 0.0	 1052.0	 1052.0	 1052.0	 1.0261	 0.0	 1	 -30.0	 30.0;
	14	 18	 0.00035	 0.0278	 0.0	 1055.0	 1055.0	 1055.0	 1.0238	 0.0	 1	 -30.0	 30.0;
	19	 20	 0.0013	 0.06616	 0.0	 443.0	 443.0	 443.0	 1.0337	 0.0	 1	 -30.0	 30.0;
	19	 21	 0.0013	 0.06616	 0.0	 443.0	 443.0	 443.0	 1.0337	 0.0	 1	 -30.0	 30.0;
	19	 22	 0.0013	 0.06616	 0.0	 443.0	 443.0	 443.0	 1.0445	 0.0	 1	 -30.0	 30.0;
	23	 24	 0.00068	 0.02772	 0.0	 1057.0	 1057.0	 1057.0	 1.0313	 0.0	 1	 -30.0	 30.0;
	23	 25	 0.00075	 0.02715	 0.0	 1079.0	 1079.0	 1079.0	 1.028	 0.0	 1	 -30.0	 30.0;
	26	 27	 0.0007	 0.02673	 0.0	 1096.0	 1096.0	 1096.0	 1.0224	 0.0	 1	 -30.0	 30.0;
	26	 28	 0.00068	 0.02767	 0.0	 1059.0	 1059.0	 1059.0	 1.0237	 0.0	 1	 -30.0	 30.0;
	29	 30	 0.0007	 0.04677	 0.0	 627.0	 627.0	 627.0	 0.9796	 0.0	 1	 -30.0	 30.0;
	29	 31	 0.0007	 0.04677	 0.0	 627.0	 627.0	 627.0	 0.9796	 0.0	 1	 -30.0	 30.0;
	29	 32	 0.0007	 0.04677	 0.0	 627.0	 627.0	 627.0	 0.9796	 0.0	 1	 -30.0	 30.0;
	29	 33	 0.0007	 0.04677	 0.0	 627.0	 627.0	 627.0	 0.9796	 0.0	 1	 -30.0	 30.0;
	29	 34	 0.0007	 0.04677	 0.0	 627.0	 627.0	 627.0	 0.9796	 0.0	 1	 -30.0	 30.0;
	29	 35	 0.0007	 0.04677	 0.0	 627.0	 627.0	 627.0	 1.0386	 0.0	 1	 -30.0	 30.0;
	36	 37	 0.00039	 0.01976	 0.0	 1484.0	 1484.0	 1484.0	 1.0163	 0.0	 1	 -30.0	 30.0;
	36	 38	 0.00039	 0.01966	 0.0	 1491.0	 1491.0	 1491.0	 1.0163	 0.0	 1	 -30.0	 30.0;
	36	 39	 0.00039	 0.02009	 0.0	 1459.0	 1459.0	 1459.0	 1.0166	 0.0	 1	 -30.0	 30.0;
	40	 41	 0.00045	 0.01915	 0.0	 1477.0	 1477.0	 1477.0	 1.0211	 0.0	 1	 -30.0	 30.0;
	40	 42	 0.00045	 0.01931	 0.0	 1483.0	 1483.0	 1483.0	 1.0213	 0.0	 1	 -30.0	 30.0;
	40	 43	 0.00043	 0.01911	 0.0	 1508.0	 1508.0	 1508.0	 1.022	 0.0	 1	 -30.0	 30.0;
	44	 45	 0.0002	 0.02043	 0.0	 1435.0	 1435.0	 1435.0	 1.0319	 0.0	 1	 -30.0	 30.0;
	44	 46	 0.00021	 0.02056	 0.0	 1426.0	 1426.0	 1426.0	 1.0305	 0.0	 1	 -30.0	 30.0;
	47	 48	 0.00073	 0.02523	 0.0	 1162.0	 1162.0	 1162.0	 1.0302	 0.0	 1	 -30.0	 30.0;
	47	 49	 0.0011	 0.0277	 0.0	 1058.0	 1058.0	 1058.0	 1.0221	 0.0	 1	 -30.0	 30.0;
	50	 51	 0.00091	 0.02577	 0.0	 1137.0	 1137.0	 1137.0	 1.0205	 0.0	 1	 -30.0	 30.0;
	50	 52	 0.00073	 0.02702	 0.0	 1085.0	 1085.0	 1085.0	 1.0263	 0.0	 1	 -30.0	 30.0;
	53	 54	 0.00073	 0.02523	 0.0	 1162.0	 1162.0	 1162.0	 1.0175	 0.0	 1	 -30.0	 30.0;
	53	 55	 0.00073	 0.02532	 0.0	 1157.0	 1157.0	 1157.0	 1.0175	 0.0	 1	 -30.0	 30.0;
	56	 57	 0.00059	 0.028	 0.0	 1047.0	 1047.0	 1047.0	 1.05	 0.0	 1	 -30.0	 30.0;
	58	 59	 0.0003	 0.02778	 0.0	 1055.0	 1055.0	 1055.0	 1.0747	 0.0	 1	 -30.0	 30.0;
	60	 61	 0.00062	 0.02754	 0.0	 1036.0	 1036.0	 1036.0	 1.0659	 0.0	 1	 -30.0	 30.0;
	56	 62	 0.00056	 0.02818	 0.0	 1040.0	 1040.0	 1040.0	 1.0528	 0.0	 1	 -30.0	 30.0;
	63	 64	 0.004	 0.09778	 0.0	 299.0	 299.0	 299.0	 0.0	 0.0	 1	 -30.0	 30.0;
	63	 65	 0.004	 0.09778	 0.0	 299.0	 299.0	 299.0	 0.0	 0.0	 1	 -30.0	 30.0;
	66	 67	 0.00045	 0.0293	 0.0	 1000.0	 1000.0	 1000.0	 1.0281	 0.0	 1	 -30.0	 30.0;
	68	 69	 0.0004	 0.02928	 0.0	 1001.0	 1001.0	 1001.0	 1.0285	 0.0	 1	 -30.0	 30.0;
	70	 71	 0.00045	 0.02893	 0.0	 1013.0	 1013.0	 1013.0	 1.0371	 0.0	 1	 -30.0	 30.0;
	72	 73	 0.00045	 0.02773	 0.0	 1057.0	 1057.0	 1057.0	 1.0353	 0.0	 1	 -30.0	 30.0;
	74	 75	 0.00025	 0.0191	 0.0	 1535.0	 1535.0	 1535.0	 1.0497	 0.0	 1	 -30.0	 30.0;
	74	 76	 0.00021	 0.0191	 0.0	 1535.0	 1535.0	 1535.0	 1.0497	 0.0	 1	 -30.0	 30.0;
	74	 77	 0.00023	 0.01933	 0.0	 1517.0	 1517.0	 1517.0	 1.0497	 0.0	 1	 -30.0	 30.0;
	74	 78	 0.0002	 0.01957	 0.0	 1498.0	 1498.0	 1498.0	 1.0497	 0.0	 1	 -30.0	 30.0;
	79	 80	 0.00037	 0.02177	 0.0	 1185.0	 1185.0	 1185.0	 1.0442	 0.0	 1	 -30.0	 30.0;
	79	 81	 0.00035	 0.02177	 0.0	 1217.0	 1217.0	 1217.0	 1.0465	 0.0	 1	 -30.0	 30.0;
	82	 83	 0.00023	 0.02024	 0.0	 1449.0	 1449.0	 1449.0	 1.0218	 0.0	 1	 -30.0	 30.0;
	82	 84	 0.00024	 0.02053	 0.0	 1428.0	 1428.0	 1428.0	 1.0212	 0.0	 1	 -30.0	 30.0;
...